New "LoadShape.default_pv_daily_mt" npts=24 interval=1 
~ mult = [0 0 0 0 0 0 0.1 0.2 0.3 0.5 0.8 0.9 1.0 1.0 0.99 0.9 0.7 0.4 0.1 0 0 0 0 0] 
New "LoadShape.default_daily" npts=24 interval=1 
~ mult = [0 0 0 0 0 0 0.1 0.2 0.3 0.5 0.8 0.9 1.0 1.0 0.99 0.9 0.7 0.4 0.1 0 0 0 0 0] 

New "generator.GD.RS.000.818.932" phases=3 bus1=121831.1.2.3.4 basefreq=60 conn=Delta kv=23.1 pf=0.92 kw=75.0 daily=default_pv_daily_mt 

New "generator.GD.RS.000.586.425" phases=3 bus1=771041.1.2.3.4 basefreq=60 conn=Delta kv=23.1 pf=0.92 kw=75.0 daily=default_pv_daily_mt 

