New "Line.SBT_35253" phases=4 bus1="BT808591.1.2.3.4" bus2="BT808611.1.2.3.4" linecode="74_4" length=0.035930000 units=km
New "Line.SBT_35254" phases=4 bus1="BT808801.1.2.3.4" bus2="ET3_6365.1.2.3.4" linecode="74_4" length=0.039340000 units=km
New "Line.SBT_35255" phases=4 bus1="BT808811.1.2.3.4" bus2="BT808801.1.2.3.4" linecode="74_4" length=0.027300000 units=km
New "Line.SBT_35256" phases=4 bus1="BT808821.1.2.3.4" bus2="BT808811.1.2.3.4" linecode="74_4" length=0.019720000 units=km
New "Line.SBT_35257" phases=4 bus1="BT808831.1.2.3.4" bus2="BT808821.1.2.3.4" linecode="74_4" length=0.030070000 units=km
New "Line.SBT_35258" phases=4 bus1="BT808841.1.2.3.4" bus2="BT808831.1.2.3.4" linecode="74_4" length=0.030160000 units=km
New "Line.SBT_35259" phases=4 bus1="BT808851.1.2.3.4" bus2="BT808841.1.2.3.4" linecode="74_4" length=0.027180000 units=km
New "Line.SBT_35260" phases=4 bus1="BT808891.1.2.3.4" bus2="ET3_6367.1.2.3.4" linecode="74_4" length=0.027810000 units=km
New "Line.SBT_35261" phases=4 bus1="BT808881.1.2.3.4" bus2="BT808891.1.2.3.4" linecode="74_4" length=0.028870000 units=km
New "Line.SBT_35262" phases=4 bus1="BT808871.1.2.3.4" bus2="BT808881.1.2.3.4" linecode="74_4" length=0.038500000 units=km
New "Line.SBT_35263" phases=4 bus1="BT808861.1.2.3.4" bus2="BT808871.1.2.3.4" linecode="74_4" length=0.039640000 units=km
New "Line.SBT_35264" phases=4 bus1="BT808911.1.2.3.4" bus2="ET3_6367.1.2.3.4" linecode="74_4" length=0.029200000 units=km
New "Line.SBT_35265" phases=4 bus1="BT808921.1.2.3.4" bus2="BT808911.1.2.3.4" linecode="74_4" length=0.030020000 units=km
New "Line.SBT_35266" phases=4 bus1="BT808931.1.2.3.4" bus2="BT808921.1.2.3.4" linecode="74_4" length=0.031410000 units=km
New "Line.SBT_35267" phases=4 bus1="BT808941.1.2.3.4" bus2="BT808931.1.2.3.4" linecode="74_4" length=0.029200000 units=km
New "Line.SBT_35268" phases=4 bus1="BT808971.1.2.3.4" bus2="ET3_6368.1.2.3.4" linecode="74_4" length=0.031730000 units=km
New "Line.SBT_35269" phases=4 bus1="BT808961.1.2.3.4" bus2="BT808971.1.2.3.4" linecode="74_4" length=0.038800000 units=km
New "Line.SBT_35270" phases=4 bus1="BT808951.1.2.3.4" bus2="BT808961.1.2.3.4" linecode="74_4" length=0.039590000 units=km
New "Line.SBT_35271" phases=4 bus1="BT808991.1.2.3.4" bus2="ET3_6368.1.2.3.4" linecode="74_4" length=0.027000000 units=km
New "Line.SBT_35272" phases=4 bus1="BT809001.1.2.3.4" bus2="BT808991.1.2.3.4" linecode="74_4" length=0.027810000 units=km
New "Line.SBT_35236" phases=4 bus1="BT808731.1.2.3.4" bus2="ET3_6366.1.2.3.4" linecode="74_4" length=0.028930000 units=km
New "Line.SBT_35237" phases=4 bus1="BT808741.1.2.3.4" bus2="BT808731.1.2.3.4" linecode="74_4" length=0.032530000 units=km
New "Line.SBT_35238" phases=4 bus1="BT808751.1.2.3.4" bus2="BT808741.1.2.3.4" linecode="74_4" length=0.023590000 units=km
New "Line.SBT_35239" phases=4 bus1="BT808761.1.2.3.4" bus2="BT808751.1.2.3.4" linecode="74_4" length=0.027080000 units=km
New "Line.SBT_35240" phases=4 bus1="BT808771.1.2.3.4" bus2="BT808761.1.2.3.4" linecode="74_4" length=0.039120000 units=km
New "Line.SBT_35241" phases=4 bus1="BT808781.1.2.3.4" bus2="BT808771.1.2.3.4" linecode="74_4" length=0.039220000 units=km
New "Line.SBT_35242" phases=4 bus1="BT808691.1.2.3.4" bus2="ET3_6366.1.2.3.4" linecode="74_4" length=0.021800000 units=km
New "Line.SBT_35243" phases=4 bus1="BT808701.1.2.3.4" bus2="BT808691.1.2.3.4" linecode="74_4" length=0.032150000 units=km
New "Line.SBT_35244" phases=4 bus1="BT808711.1.2.3.4" bus2="BT808701.1.2.3.4" linecode="74_4" length=0.027180000 units=km
New "Line.SBT_35245" phases=4 bus1="BT808721.1.2.3.4" bus2="BT808711.1.2.3.4" linecode="74_4" length=0.025090000 units=km
New "Line.SBT_35246" phases=4 bus1="BT808671.1.2.3.4" bus2="ET3_6366.1.2.3.4" linecode="74_4" length=0.029780000 units=km
New "Line.SBT_35247" phases=4 bus1="BT808661.1.2.3.4" bus2="BT808671.1.2.3.4" linecode="74_4" length=0.034200000 units=km
New "Line.SBT_35248" phases=4 bus1="BT808651.1.2.3.4" bus2="BT808661.1.2.3.4" linecode="74_4" length=0.025320000 units=km
New "Line.SBT_35249" phases=4 bus1="BT808641.1.2.3.4" bus2="ET3_6365.1.2.3.4" linecode="74_4" length=0.039340000 units=km
New "Line.SBT_35250" phases=4 bus1="BT808631.1.2.3.4" bus2="BT808641.1.2.3.4" linecode="74_4" length=0.039340000 units=km
New "Line.SBT_35251" phases=4 bus1="BT808621.1.2.3.4" bus2="BT808631.1.2.3.4" linecode="74_4" length=0.039340000 units=km
New "Line.SBT_35252" phases=4 bus1="BT808611.1.2.3.4" bus2="BT808621.1.2.3.4" linecode="74_4" length=0.039340000 units=km
New "Line.SBT_34901" phases=4 bus1="BT806291.1.2.3.4" bus2="BT803391.1.2.3.4" linecode="74_4" length=0.038410000 units=km
New "Line.SBT_34880" phases=4 bus1="BT85891.1.2.3.4" bus2="BT806171.1.2.3.4" linecode="73_4" length=0.071090000 units=km
New "Line.SBT_34881" phases=4 bus1="BT806171.1.2.3.4" bus2="ET3_3392.1.2.3.4" linecode="73_4" length=0.046110000 units=km
New "Line.SBT_34647" phases=4 bus1="BT803511.1.2.3.4" bus2="ET3_6179.1.2.3.4" linecode="74_4" length=0.041910000 units=km
New "Line.SBT_34648" phases=4 bus1="BT803521.1.2.3.4" bus2="BT803511.1.2.3.4" linecode="74_4" length=0.050670000 units=km
New "Line.SBT_34649" phases=4 bus1="BT803531.1.2.3.4" bus2="BT803521.1.2.3.4" linecode="74_4" length=0.043320000 units=km
New "Line.SBT_34650" phases=4 bus1="BT803541.1.2.3.4" bus2="BT803531.1.2.3.4" linecode="74_4" length=0.038240000 units=km
New "Line.SBT_34651" phases=4 bus1="BT803551.1.2.3.4" bus2="BT803541.1.2.3.4" linecode="74_4" length=0.030180000 units=km
New "Line.SBT_34652" phases=4 bus1="BT803552.1.2.3.4" bus2="BT803561.1.2.3.4" linecode="74_4" length=0.039510000 units=km
New "Line.SBT_34653" phases=4 bus1="BT803561.1.2.3.4" bus2="BT83852.1.2.3.4" linecode="74_4" length=0.038870000 units=km
New "Line.SBT_34654" phases=4 bus1="BT803571.1.2.3.4" bus2="BT803581.1.2.3.4" linecode="74_4" length=0.042430000 units=km
New "Line.SBT_34655" phases=4 bus1="BT803581.1.2.3.4" bus2="BT803591.1.2.3.4" linecode="74_4" length=0.038940000 units=km
New "Line.SBT_34656" phases=4 bus1="BT803591.1.2.3.4" bus2="BT803381.1.2.3.4" linecode="74_4" length=0.027300000 units=km
New "Line.SBT_34657" phases=4 bus1="BT803611.1.2.3.4" bus2="BT803431.1.2.3.4" linecode="74_4" length=0.043350000 units=km
New "Line.SBT_34660" phases=4 bus1="BT803651.1.2.3.4" bus2="BT803641.1.2.3.4" linecode="74_4" length=0.034160000 units=km
New "Line.SBT_34661" phases=4 bus1="BT803641.1.2.3.4" bus2="BT756801.1.2.3.4" linecode="74_4" length=0.027400000 units=km
New "Line.SBT_34622" phases=4 bus1="BT83902.1.2.3.4" bus2="BT708511.1.2.3.4" linecode="74_4" length=0.043000000 units=km
New "Line.SBT_34624" phases=4 bus1="BT84981.1.2.3.4" bus2="BT803441.1.2.3.4" linecode="74_4" length=0.028750000 units=km
New "Line.SBT_34625" phases=4 bus1="BT103941.1.2.3.4" bus2="BT803461.1.2.3.4" linecode="74_4" length=0.031470000 units=km
New "Line.SBT_34626" phases=4 bus1="BT103964.1.2.3.4" bus2="BT699991.1.2.3.4" linecode="74_4" length=0.029940000 units=km
New "Line.SBT_34627" phases=4 bus1="BT109542.1.2.3.4" bus2="BT803361.1.2.3.4" linecode="74_4" length=0.024460000 units=km
New "Line.SBT_34628" phases=4 bus1="BT699981.1.2.3.4" bus2="BT83902.1.2.3.4" linecode="74_4" length=0.028340000 units=km
New "Line.SBT_34629" phases=4 bus1="BT699991.1.2.3.4" bus2="BT699981.1.2.3.4" linecode="74_4" length=0.033540000 units=km
New "Line.SBT_34630" phases=4 bus1="BT708511.1.2.3.4" bus2="BT803491.1.2.3.4" linecode="74_4" length=0.026320000 units=km
New "Line.SBT_34632" phases=4 bus1="BT803361.1.2.3.4" bus2="ET3_115.1.2.3.4" linecode="74_4" length=0.037370000 units=km
New "Line.SBT_34635" phases=4 bus1="BT803391.1.2.3.4" bus2="BT803401.1.2.3.4" linecode="74_4" length=0.036250000 units=km
New "Line.SBT_34636" phases=4 bus1="BT803401.1.2.3.4" bus2="BT803411.1.2.3.4" linecode="74_4" length=0.035110000 units=km
New "Line.SBT_34637" phases=4 bus1="BT803411.1.2.3.4" bus2="BT803611.1.2.3.4" linecode="74_4" length=0.026980000 units=km
New "Line.SBT_34638" phases=4 bus1="BT803431.1.2.3.4" bus2="BT803441.1.2.3.4" linecode="74_4" length=0.035730000 units=km
New "Line.SBT_34639" phases=4 bus1="BT803441.1.2.3.4" bus2="ET3_114.1.2.3.4" linecode="74_4" length=0.046850000 units=km
New "Line.SBT_34641" phases=4 bus1="BT803461.1.2.3.4" bus2="ET3_114.1.2.3.4" linecode="74_4" length=0.056970000 units=km
New "Line.SBT_34642" phases=4 bus1="BT803471.1.2.3.4" bus2="BT803461.1.2.3.4" linecode="74_4" length=0.040130000 units=km
New "Line.SBT_34643" phases=4 bus1="BT803472.1.2.3.4" bus2="BT803481.1.2.3.4" linecode="74_4" length=0.048640000 units=km
New "Line.SBT_34644" phases=4 bus1="BT803481.1.2.3.4" bus2="BT103964.1.2.3.4" linecode="74_4" length=0.046610000 units=km
New "Line.SBT_34645" phases=4 bus1="BT803491.1.2.3.4" bus2="ET3_6179.1.2.3.4" linecode="74_4" length=0.046360000 units=km
New "Line.SBT_34618" phases=4 bus1="BT83821.1.2.3.4" bus2="BT803591.1.2.3.4" linecode="97_4" length=0.065580000 units=km
New "Line.SBT_34619" phases=4 bus1="BT83831.1.2.3.4" bus2="BT83821.1.2.3.4" linecode="97_4" length=0.068070000 units=km
New "Line.SBT_34620" phases=4 bus1="BT83852.1.2.3.4" bus2="BT803571.1.2.3.4" linecode="74_4" length=0.055280000 units=km
New "Line.SBT_34621" phases=4 bus1="BT83871.1.2.3.4" bus2="BT803552.1.2.3.4" linecode="74_4" length=0.053670000 units=km
New "Line.SBT_34332" phases=4 bus1="BT799681.1.2.3.4" bus2="BT267532.1.2.3.4" linecode="74_4" length=0.025180000 units=km
New "Line.SBT_34333" phases=4 bus1="BT799691.1.2.3.4" bus2="BT799681.1.2.3.4" linecode="74_4" length=0.030680000 units=km
New "Line.SBT_34334" phases=4 bus1="BT799701.1.2.3.4" bus2="BT799691.1.2.3.4" linecode="74_4" length=0.031250000 units=km
New "Line.SBT_34335" phases=4 bus1="BT799711.1.2.3.4" bus2="BT799701.1.2.3.4" linecode="74_4" length=0.027660000 units=km
New "Line.SBT_34331" phases=4 bus1="BT787191.1.2.3.4" bus2="BT799681.1.2.3.4" linecode="74_4" length=0.031550000 units=km
New "Line.SBT_33535" phases=4 bus1="BT792261.1.2.3.4" bus2="BT792441.1.2.3.4" linecode="74_4" length=0.011900000 units=km
New "Line.SBT_33537" phases=4 bus1="BT792281.1.2.3.4" bus2="BT792441.1.2.3.4" linecode="74_4" length=0.027120000 units=km
New "Line.SBT_33538" phases=4 bus1="BT792291.1.2.3.4" bus2="BT792281.1.2.3.4" linecode="74_4" length=0.040120000 units=km
New "Line.SBT_33539" phases=4 bus1="BT792301.1.2.3.4" bus2="BT792441.1.2.3.4" linecode="74_4" length=0.018230000 units=km
New "Line.SBT_33540" phases=4 bus1="BT792311.1.2.3.4" bus2="BT792301.1.2.3.4" linecode="74_4" length=0.040210000 units=km
New "Line.SBT_33541" phases=4 bus1="BT792321.1.2.3.4" bus2="BT792311.1.2.3.4" linecode="74_4" length=0.041120000 units=km
New "Line.SBT_33542" phases=4 bus1="BT792331.1.2.3.4" bus2="BT792321.1.2.3.4" linecode="74_4" length=0.027080000 units=km
New "Line.SBT_33543" phases=4 bus1="BT792341.1.2.3.4" bus2="ET3_6086.1.2.3.4" linecode="74_4" length=0.038120000 units=km
New "Line.SBT_33544" phases=4 bus1="BT792351.1.2.3.4" bus2="BT792431.1.2.3.4" linecode="74_4" length=0.033010000 units=km
New "Line.SBT_33545" phases=4 bus1="BT792361.1.2.3.4" bus2="BT792431.1.2.3.4" linecode="74_4" length=0.028400000 units=km
New "Line.SBT_33546" phases=4 bus1="BT792371.1.2.3.4" bus2="BT792361.1.2.3.4" linecode="74_4" length=0.040120000 units=km
New "Line.SBT_33547" phases=4 bus1="BT792381.1.2.3.4" bus2="BT792431.1.2.3.4" linecode="74_4" length=0.016900000 units=km
New "Line.SBT_33548" phases=4 bus1="BT792391.1.2.3.4" bus2="BT792381.1.2.3.4" linecode="74_4" length=0.027080000 units=km
New "Line.SBT_33549" phases=4 bus1="BT792401.1.2.3.4" bus2="BT792351.1.2.3.4" linecode="74_4" length=0.043190000 units=km
New "Line.SBT_33550" phases=4 bus1="BT792411.1.2.3.4" bus2="BT792401.1.2.3.4" linecode="74_4" length=0.029170000 units=km
New "Line.SBT_33551" phases=4 bus1="BT792421.1.2.3.4" bus2="BT792411.1.2.3.4" linecode="74_4" length=0.039220000 units=km
New "Line.SBT_33552" phases=4 bus1="BT792431.1.2.3.4" bus2="BT792341.1.2.3.4" linecode="74_4" length=0.010190000 units=km
New "Line.SBT_33553" phases=4 bus1="BT792441.1.2.3.4" bus2="ET3_6086.1.2.3.4" linecode="74_4" length=0.030360000 units=km
New "Line.SBT_33554" phases=4 bus1="BT792451.1.2.3.4" bus2="BT792211.1.2.3.4" linecode="74_4" length=0.030710000 units=km
New "Line.SBT_33524" phases=4 bus1="BT683851.1.2.3.4" bus2="BT684081.1.2.3.4" linecode="74_4" length=0.015930000 units=km
New "Line.SBT_33523" phases=4 bus1="BT683821.1.2.3.4" bus2="BT684081.1.2.3.4" linecode="74_4" length=0.030120000 units=km
New "Line.SBT_33525" phases=4 bus1="BT684081.1.2.3.4" bus2="BT683841.1.2.3.4" linecode="74_4" length=0.009970000 units=km
New "Line.SBT_33526" phases=4 bus1="BT792171.1.2.3.4" bus2="BT683801.1.2.3.4" linecode="74_4" length=0.044430000 units=km
New "Line.SBT_33527" phases=4 bus1="BT792181.1.2.3.4" bus2="BT683811.1.2.3.4" linecode="74_4" length=0.023210000 units=km
New "Line.SBT_33528" phases=4 bus1="BT792191.1.2.3.4" bus2="BT792181.1.2.3.4" linecode="74_4" length=0.038360000 units=km
New "Line.SBT_33529" phases=4 bus1="BT792201.1.2.3.4" bus2="BT792451.1.2.3.4" linecode="74_4" length=0.013510000 units=km
New "Line.SBT_33530" phases=4 bus1="BT792211.1.2.3.4" bus2="BT792261.1.2.3.4" linecode="74_4" length=0.033260000 units=km
New "Line.SBT_33531" phases=4 bus1="BT792221.1.2.3.4" bus2="BT792451.1.2.3.4" linecode="74_4" length=0.026910000 units=km
New "Line.SBT_33532" phases=4 bus1="BT792231.1.2.3.4" bus2="BT792221.1.2.3.4" linecode="74_4" length=0.038220000 units=km
New "Line.SBT_33533" phases=4 bus1="BT792241.1.2.3.4" bus2="BT792451.1.2.3.4" linecode="74_4" length=0.010220000 units=km
New "Line.SBT_33534" phases=4 bus1="BT792251.1.2.3.4" bus2="BT792241.1.2.3.4" linecode="74_4" length=0.033140000 units=km
New "Line.SBT_33497" phases=4 bus1="BT131282.1.2.3.4" bus2="BT131291.1.2.3.4" linecode="73_4" length=0.063560000 units=km
New "Line.SBT_33498" phases=4 bus1="BT131291.1.2.3.4" bus2="BT131301.1.2.3.4" linecode="73_4" length=0.056290000 units=km
New "Line.SBT_33499" phases=4 bus1="BT131301.1.2.3.4" bus2="BT714991.1.2.3.4" linecode="73_4" length=0.037000000 units=km
New "Line.SBT_33501" phases=4 bus1="BT714991.1.2.3.4" bus2="BT715002.1.2.3.4" linecode="73_4" length=0.050220000 units=km
New "Line.SBT_33502" phases=4 bus1="BT715002.1.2.3.4" bus2="ET3_6094.1.2.3.4" linecode="74_4" length=0.018120000 units=km
New "Line.SBT_33391" phases=4 bus1="BT791341.1.2.3.4" bus2="BT414691.1.2.3.4" linecode="73_4" length=0.019010000 units=km
New "Line.SBT_33403" phases=4 bus1="BT791381.1.2.3.4" bus2="BT791391.1.2.3.4" linecode="74_4" length=0.039120000 units=km
New "Line.SBT_33404" phases=4 bus1="BT791391.1.2.3.4" bus2="BT791401.1.2.3.4" linecode="74_4" length=0.028480000 units=km
New "Line.SBT_33405" phases=4 bus1="BT791401.1.2.3.4" bus2="BT692941.1.2.3.4" linecode="74_4" length=0.029070000 units=km
New "Line.SBT_33224" phases=4 bus1="BT789691.1.2.3.4" bus2="BT679542.1.2.3.4" linecode="73_4" length=0.076800000 units=km
New "Line.SBT_33225" phases=4 bus1="BT789701.1.2.3.4" bus2="BT789691.1.2.3.4" linecode="73_4" length=0.089990000 units=km
New "Line.SBT_33006" phases=4 bus1="BT787221.1.2.3.4" bus2="BT787181.1.2.3.4" linecode="73_4" length=0.044380000 units=km
New "Line.SBT_33007" phases=4 bus1="BT787231.1.2.3.4" bus2="ET3_5030.1.2.3.4" linecode="74_4" length=0.040170000 units=km
New "Line.SBT_33008" phases=4 bus1="BT787241.1.2.3.4" bus2="BT92822.1.2.3.4" linecode="74_4" length=0.031710000 units=km
New "Line.SBT_33009" phases=4 bus1="BT787242.1.2.3.4" bus2="BT787361.1.2.3.4" linecode="74_4" length=0.054250000 units=km
New "Line.SBT_33010" phases=4 bus1="BT787252.1.2.3.4" bus2="BT787261.1.2.3.4" linecode="74_4" length=0.029760000 units=km
New "Line.SBT_33011" phases=4 bus1="BT787261.1.2.3.4" bus2="BT787271.1.2.3.4" linecode="74_4" length=0.035380000 units=km
New "Line.SBT_33012" phases=4 bus1="BT787271.1.2.3.4" bus2="BT92802.1.2.3.4" linecode="74_4" length=0.036190000 units=km
New "Line.SBT_33015" phases=4 bus1="BT787301.1.2.3.4" bus2="BT787351.1.2.3.4" linecode="74_4" length=0.005570000 units=km
New "Line.SBT_33016" phases=4 bus1="BT787311.1.2.3.4" bus2="BT787351.1.2.3.4" linecode="74_4" length=0.005850000 units=km
New "Line.SBT_33017" phases=4 bus1="BT787321.1.2.3.4" bus2="BT787351.1.2.3.4" linecode="74_4" length=0.013060000 units=km
New "Line.SBT_33018" phases=4 bus1="BT787331.1.2.3.4" bus2="BT787321.1.2.3.4" linecode="74_4" length=0.030160000 units=km
New "Line.SBT_33019" phases=4 bus1="BT787341.1.2.3.4" bus2="BT787331.1.2.3.4" linecode="74_4" length=0.017770000 units=km
New "Line.SBT_33020" phases=4 bus1="BT787351.1.2.3.4" bus2="ET3_5969.1.2.3.4" linecode="74_4" length=0.038550000 units=km
New "Line.SBT_33021" phases=4 bus1="BT787361.1.2.3.4" bus2="BT267571.1.2.3.4" linecode="74_4" length=0.043050000 units=km
New "Line.SBT_33022" phases=4 bus1="BT787371.1.2.3.4" bus2="BT267551.1.2.3.4" linecode="74_4" length=0.037230000 units=km
New "Line.SBT_32986" phases=4 bus1="BT92802.1.2.3.4" bus2="ET3_1764.1.2.3.4" linecode="74_4" length=0.045650000 units=km
New "Line.SBT_32987" phases=4 bus1="BT92822.1.2.3.4" bus2="BT787252.1.2.3.4" linecode="74_4" length=0.040380000 units=km
New "Line.SBT_32988" phases=2 bus1="BT92831.1.4" bus2="BT787252.1.4" linecode="60_2" length=0.015710000 units=km
New "Line.SBT_32989" phases=3 bus1="BT92871.1.2.4" bus2="BT787221.1.2.4" linecode="59_3" length=0.044450000 units=km
New "Line.SBT_32990" phases=4 bus1="BT104771.1.2.3.4" bus2="BT111311.1.2.3.4" linecode="74_4" length=0.015760000 units=km
New "Line.SBT_32991" phases=4 bus1="BT267532.1.2.3.4" bus2="BT787201.1.2.3.4" linecode="74_4" length=0.038770000 units=km
New "Line.SBT_32992" phases=4 bus1="BT267542.1.2.3.4" bus2="BT787371.1.2.3.4" linecode="74_4" length=0.037110000 units=km
New "Line.SBT_32993" phases=4 bus1="BT267543.1.2.3.4" bus2="BT787191.1.2.3.4" linecode="74_4" length=0.047900000 units=km
New "Line.SBT_32994" phases=4 bus1="BT267551.1.2.3.4" bus2="ET3_5030.1.2.3.4" linecode="74_4" length=0.035890000 units=km
New "Line.SBT_32995" phases=4 bus1="BT267571.1.2.3.4" bus2="BT787231.1.2.3.4" linecode="74_4" length=0.038040000 units=km
New "Line.SBT_32996" phases=4 bus1="BT327161.1.2.3.4" bus2="ET3_5969.1.2.3.4" linecode="74_4" length=0.028830000 units=km
New "Line.SBT_32997" phases=4 bus1="BT327171.1.2.3.4" bus2="BT327161.1.2.3.4" linecode="74_4" length=0.032620000 units=km
New "Line.SBT_32998" phases=4 bus1="BT327181.1.2.3.4" bus2="BT327171.1.2.3.4" linecode="74_4" length=0.019030000 units=km
New "Line.SBT_32999" phases=4 bus1="BT327191.1.2.3.4" bus2="BT327181.1.2.3.4" linecode="74_4" length=0.029070000 units=km
New "Line.SBT_33000" phases=4 bus1="BT327201.1.2.3.4" bus2="BT327191.1.2.3.4" linecode="74_4" length=0.027170000 units=km
New "Line.SBT_33001" phases=4 bus1="BT377971.1.2.3.4" bus2="BT327171.1.2.3.4" linecode="74_4" length=0.033390000 units=km
New "Line.SBT_33002" phases=4 bus1="BT787181.1.2.3.4" bus2="ET3_120.1.2.3.4" linecode="97_4" length=0.045190000 units=km
New "Line.SBT_33004" phases=4 bus1="BT787201.1.2.3.4" bus2="BT787211.1.2.3.4" linecode="74_4" length=0.039580000 units=km
New "Line.SBT_33005" phases=4 bus1="BT787211.1.2.3.4" bus2="BT787221.1.2.3.4" linecode="74_4" length=0.055400000 units=km
New "Line.SBT_32983" phases=4 bus1="BT92782.1.2.3.4" bus2="BT104771.1.2.3.4" linecode="74_4" length=0.036470000 units=km
New "Line.SBT_32984" phases=4 bus1="BT92783.1.2.3.4" bus2="ET3_1764.1.2.3.4" linecode="74_4" length=0.058020000 units=km
New "Line.SBT_32897" phases=2 bus1="BT123821.1.4" bus2="BT786042.1.4" linecode="60_2" length=0.078840000 units=km
New "Line.SBT_32898" phases=2 bus1="BT786011.1.4" bus2="BT786021.1.4" linecode="62_2" length=0.042550000 units=km
New "Line.SBT_32899" phases=2 bus1="BT786021.1.4" bus2="ET3_6009.1.4" linecode="62_2" length=0.049780000 units=km
New "Line.SBT_32901" phases=3 bus1="BT786042.1.2.4" bus2="ET3_6009.1.2.4" linecode="59_3" length=0.057290000 units=km
New "Line.SBT_32489" phases=2 bus1="BT781041.1.4" bus2="BT756852.1.4" linecode="108_2" length=0.021040000 units=km
New "Line.SBT_32490" phases=4 bus1="BT109451.1.2.3.4" bus2="BT680002.1.2.3.4" linecode="74_4" length=0.037520000 units=km
New "Line.SBT_32315" phases=3 bus1="BT730691.1.2.4" bus2="ET3_5942.1.2.4" linecode="59_3" length=0.049480000 units=km
New "Line.SBT_32317" phases=2 bus1="BT327401.1.4" bus2="BT730701.1.4" linecode="102_2" length=0.028000000 units=km
New "Line.SBT_32316" phases=3 bus1="BT730701.1.2.4" bus2="BT730691.1.2.4" linecode="59_3" length=0.058820000 units=km
New "Line.SBT_32318" phases=2 bus1="BT327411.1.4" bus2="BT327401.1.4" linecode="102_2" length=0.041110000 units=km
New "Line.SBT_32248" phases=4 bus1="BT20532.1.2.3.4" bus2="ET3_5947.1.2.3.4" linecode="74_4" length=0.032230000 units=km
New "Line.SBT_32249" phases=4 bus1="BT20541.1.2.3.4" bus2="BT20532.1.2.3.4" linecode="74_4" length=0.041200000 units=km
New "Line.SBT_32236" phases=4 bus1="BT778711.1.2.3.4" bus2="BT755531.1.2.3.4" linecode="73_4" length=0.063550000 units=km
New "Line.SBT_32202" phases=4 bus1="BT778471.1.2.3.4" bus2="BT144741.1.2.3.4" linecode="97_4" length=0.075280000 units=km
New "Line.SBT_32203" phases=4 bus1="BT70721.1.2.3.4" bus2="BT778481.1.2.3.4" linecode="73_4" length=0.053860000 units=km
New "Line.SBT_32204" phases=4 bus1="BT778481.1.2.3.4" bus2="BT645021.1.2.3.4" linecode="73_4" length=0.045000000 units=km
New "Line.SBT_32149" phases=3 bus1="BT104761.1.2.4" bus2="BT149491.1.2.4" linecode="44_3" length=0.091760000 units=km
New "Line.SBT_32150" phases=3 bus1="BT104762.1.2.4" bus2="ET3_1431.1.2.4" linecode="59_3" length=0.090380000 units=km
New "Line.SBT_32151" phases=2 bus1="BT149471.1.4" bus2="BT149481.1.4" linecode="60_2" length=0.054450000 units=km
New "Line.SBT_32152" phases=3 bus1="BT149481.1.2.4" bus2="ET3_5929.1.2.4" linecode="91_3" length=0.085750000 units=km
New "Line.SBT_32153" phases=3 bus1="BT149491.1.2.4" bus2="BT149481.1.2.4" linecode="44_3" length=0.082540000 units=km
New "Line.SBT_32154" phases=3 bus1="BT149521.1.2.4" bus2="BT675711.1.2.4" linecode="59_3" length=0.045610000 units=km
New "Line.SBT_32155" phases=3 bus1="BT149531.1.2.4" bus2="BT778281.1.2.4" linecode="59_3" length=0.049440000 units=km
New "Line.SBT_32157" phases=3 bus1="BT675711.1.2.4" bus2="ET3_1431.1.2.4" linecode="59_3" length=0.034710000 units=km
New "Line.SBT_32158" phases=3 bus1="BT778261.1.2.4" bus2="BT675711.1.2.4" linecode="59_3" length=0.025580000 units=km
New "Line.SBT_32160" phases=3 bus1="BT778281.1.2.4" bus2="BT149521.1.2.4" linecode="59_3" length=0.052850000 units=km
New "Line.SBT_31847" phases=4 bus1="BT773001.1.2.3.4" bus2="BT772991.1.2.3.4" linecode="74_4" length=0.046220000 units=km
New "Line.SBT_31848" phases=4 bus1="BT773011.1.2.3.4" bus2="BT773001.1.2.3.4" linecode="74_4" length=0.021180000 units=km
New "Line.SBT_31849" phases=4 bus1="BT773021.1.2.3.4" bus2="BT773011.1.2.3.4" linecode="74_4" length=0.025080000 units=km
New "Line.SBT_31850" phases=4 bus1="BT773031.1.2.3.4" bus2="BT773021.1.2.3.4" linecode="74_4" length=0.027360000 units=km
New "Line.SBT_31851" phases=4 bus1="BT773041.1.2.3.4" bus2="BT773031.1.2.3.4" linecode="74_4" length=0.019830000 units=km
New "Line.SBT_31852" phases=4 bus1="BT773051.1.2.3.4" bus2="BT773011.1.2.3.4" linecode="74_4" length=0.042270000 units=km
New "Line.SBT_31853" phases=4 bus1="BT773061.1.2.3.4" bus2="BT773051.1.2.3.4" linecode="74_4" length=0.042920000 units=km
New "Line.SBT_31854" phases=4 bus1="BT773071.1.2.3.4" bus2="BT773061.1.2.3.4" linecode="74_4" length=0.036690000 units=km
New "Line.SBT_31843" phases=4 bus1="BT772961.1.2.3.4" bus2="BT680201.1.2.3.4" linecode="74_4" length=0.029420000 units=km
New "Line.SBT_31844" phases=4 bus1="BT772971.1.2.3.4" bus2="BT772961.1.2.3.4" linecode="74_4" length=0.041650000 units=km
New "Line.SBT_31845" phases=4 bus1="BT772981.1.2.3.4" bus2="BT772971.1.2.3.4" linecode="74_4" length=0.023110000 units=km
New "Line.SBT_31846" phases=4 bus1="BT772991.1.2.3.4" bus2="BT772981.1.2.3.4" linecode="74_4" length=0.037040000 units=km
New "Line.SBT_31793" phases=4 bus1="BT6901.1.2.3.4" bus2="BT6923.1.2.3.4" linecode="97_4" length=0.069460000 units=km
New "Line.SBT_31791" phases=4 bus1="BT6931.1.2.3.4" bus2="BT6923.1.2.3.4" linecode="97_4" length=0.047010000 units=km
New "Line.SBT_31792" phases=4 bus1="BT6923.1.2.3.4" bus2="ET3_102.1.2.3.4" linecode="97_4" length=0.065490000 units=km
New "Line.SBT_31278" phases=4 bus1="BT6742.1.2.3.4" bus2="BT768301.1.2.3.4" linecode="74_4" length=0.022050000 units=km
New "Line.SBT_31279" phases=4 bus1="BT6752.1.2.3.4" bus2="BT6742.1.2.3.4" linecode="92_4" length=0.057980000 units=km
New "Line.SBT_31280" phases=4 bus1="BT768231.1.2.3.4" bus2="BT768241.1.2.3.4" linecode="74_4" length=0.049340000 units=km
New "Line.SBT_31281" phases=4 bus1="BT768241.1.2.3.4" bus2="BT768251.1.2.3.4" linecode="74_4" length=0.052650000 units=km
New "Line.SBT_31282" phases=4 bus1="BT768251.1.2.3.4" bus2="BT768261.1.2.3.4" linecode="74_4" length=0.053500000 units=km
New "Line.SBT_31283" phases=4 bus1="BT768261.1.2.3.4" bus2="ET3_5784.1.2.3.4" linecode="74_4" length=0.053880000 units=km
New "Line.SBT_31285" phases=4 bus1="BT768281.1.2.3.4" bus2="ET3_5784.1.2.3.4" linecode="74_4" length=0.045510000 units=km
New "Line.SBT_31286" phases=4 bus1="BT768291.1.2.3.4" bus2="BT768281.1.2.3.4" linecode="74_4" length=0.044370000 units=km
New "Line.SBT_31287" phases=4 bus1="BT768301.1.2.3.4" bus2="BT768291.1.2.3.4" linecode="74_4" length=0.034080000 units=km
New "Line.SBT_31288" phases=4 bus1="BT768311.1.2.3.4" bus2="BT6121.1.2.3.4" linecode="74_4" length=0.035360000 units=km
New "Line.SBT_31289" phases=4 bus1="BT768321.1.2.3.4" bus2="BT768311.1.2.3.4" linecode="74_4" length=0.038690000 units=km
New "Line.SBT_31290" phases=4 bus1="BT768331.1.2.3.4" bus2="BT768321.1.2.3.4" linecode="74_4" length=0.051420000 units=km
New "Line.SBT_31291" phases=4 bus1="BT768341.1.2.3.4" bus2="BT768331.1.2.3.4" linecode="74_4" length=0.047250000 units=km
New "Line.SBT_31292" phases=4 bus1="BT768351.1.2.3.4" bus2="BT768341.1.2.3.4" linecode="74_4" length=0.038130000 units=km
New "Line.SBT_31293" phases=4 bus1="BT768361.1.2.3.4" bus2="BT768351.1.2.3.4" linecode="74_4" length=0.026780000 units=km
New "Line.SBT_31235" phases=4 bus1="BT767901.1.2.3.4" bus2="BT767911.1.2.3.4" linecode="74_4" length=0.030540000 units=km
New "Line.SBT_31236" phases=4 bus1="BT767931.1.2.3.4" bus2="ET3_5867.1.2.3.4" linecode="74_4" length=0.040510000 units=km
New "Line.SBT_31237" phases=4 bus1="BT767941.1.2.3.4" bus2="BT767931.1.2.3.4" linecode="74_4" length=0.039030000 units=km
New "Line.SBT_31238" phases=4 bus1="BT767951.1.2.3.4" bus2="BT767941.1.2.3.4" linecode="74_4" length=0.036770000 units=km
New "Line.SBT_31239" phases=4 bus1="BT767961.1.2.3.4" bus2="ET3_5867.1.2.3.4" linecode="74_4" length=0.032670000 units=km
New "Line.SBT_31240" phases=4 bus1="BT767971.1.2.3.4" bus2="BT767961.1.2.3.4" linecode="74_4" length=0.038550000 units=km
New "Line.SBT_31241" phases=4 bus1="BT768021.1.2.3.4" bus2="BT767971.1.2.3.4" linecode="74_4" length=0.032380000 units=km
New "Line.SBT_31242" phases=4 bus1="BT767981.1.2.3.4" bus2="BT767971.1.2.3.4" linecode="74_4" length=0.035180000 units=km
New "Line.SBT_31243" phases=4 bus1="BT767991.1.2.3.4" bus2="BT767981.1.2.3.4" linecode="74_4" length=0.038080000 units=km
New "Line.SBT_31244" phases=4 bus1="BT768001.1.2.3.4" bus2="BT767991.1.2.3.4" linecode="74_4" length=0.039610000 units=km
New "Line.SBT_31245" phases=4 bus1="BT768011.1.2.3.4" bus2="BT768001.1.2.3.4" linecode="74_4" length=0.024630000 units=km
New "Line.SBT_31246" phases=4 bus1="BT768031.1.2.3.4" bus2="BT767901.1.2.3.4" linecode="74_4" length=0.024930000 units=km
New "Line.SBT_31247" phases=4 bus1="BT767841.1.2.3.4" bus2="BT767851.1.2.3.4" linecode="74_4" length=0.028070000 units=km
New "Line.SBT_31248" phases=4 bus1="BT767851.1.2.3.4" bus2="BT768031.1.2.3.4" linecode="74_4" length=0.016040000 units=km
New "Line.SBT_31249" phases=4 bus1="BT767861.1.2.3.4" bus2="BT768031.1.2.3.4" linecode="74_4" length=0.014760000 units=km
New "Line.SBT_31250" phases=4 bus1="BT767871.1.2.3.4" bus2="BT768031.1.2.3.4" linecode="74_4" length=0.023910000 units=km
New "Line.SBT_31251" phases=4 bus1="BT767881.1.2.3.4" bus2="BT767871.1.2.3.4" linecode="74_4" length=0.040950000 units=km
New "Line.SBT_31252" phases=4 bus1="BT767891.1.2.3.4" bus2="BT767881.1.2.3.4" linecode="74_4" length=0.037140000 units=km
New "Line.SBT_31234" phases=4 bus1="BT767911.1.2.3.4" bus2="ET3_5867.1.2.3.4" linecode="74_4" length=0.032240000 units=km
New "Line.SBT_30980" phases=4 bus1="BT144641.1.2.3.4" bus2="ET3_3785.1.2.3.4" linecode="74_4" length=0.055570000 units=km
New "Line.SBT_30981" phases=4 bus1="BT274481.1.2.3.4" bus2="BT144641.1.2.3.4" linecode="74_4" length=0.025080000 units=km
New "Line.SBT_30982" phases=4 bus1="BT765531.1.2.3.4" bus2="BT274481.1.2.3.4" linecode="74_4" length=0.053450000 units=km
New "Line.SBT_30898" phases=4 bus1="BT126412.1.2.3.4" bus2="ET3_5778.1.2.3.4" linecode="74_4" length=0.032390000 units=km
New "Line.SBT_30900" phases=4 bus1="BT764971.1.2.3.4" bus2="ET3_5778.1.2.3.4" linecode="74_4" length=0.051170000 units=km
New "Line.SBT_30901" phases=4 bus1="BT764981.1.2.3.4" bus2="BT764971.1.2.3.4" linecode="74_4" length=0.051040000 units=km
New "Line.SBT_30902" phases=4 bus1="BT764991.1.2.3.4" bus2="BT764981.1.2.3.4" linecode="74_4" length=0.037480000 units=km
New "Line.SBT_30697" phases=4 bus1="BT70681.1.2.3.4" bus2="BT763251.1.2.3.4" linecode="73_4" length=0.048770000 units=km
New "Line.SBT_30698" phases=4 bus1="BT763251.1.2.3.4" bus2="ET21_143.1.2.3.4" linecode="73_4" length=0.035070000 units=km
New "Line.SBT_30633" phases=4 bus1="BT27641.1.2.3.4" bus2="BT762701.1.2.3.4" linecode="73_4" length=0.051950000 units=km
New "Line.SBT_30634" phases=4 bus1="BT27651.1.2.3.4" bus2="BT27641.1.2.3.4" linecode="73_4" length=0.075290000 units=km