New "Transformer.TRF_3_4703A" phases=3 windings=2 buses=["673441.1.2.3" "ET3_4703.1.2.3.4"] conns=[Delta Wye] kvs=[23.1 0.38]  kvas=[75 75] %loadloss=3.840000 %noloadloss=0.966667
New "Reactor.TRF_3_4703A_R" phases=1 bus1=ET3_4703.4 R=15 X=0 basefreq=60

New "Transformer.TRF_3_6613A" phases=1 windings=3 buses=["MRT_730651TRF_3_6613A.2" "ET3_6613.1.4" "ET3_6613.4.2" ] conns=[Wye Wye Wye] kvs=[13.3367912182804 0.22 0.22]  kvas=[15 15 15] %loadloss=1.766667 %noloadloss=0.433333
New "Reactor.TRF_3_6613A_R" phases=1 bus1=ET3_6613.4 R=15 X=0 basefreq=60
New "Linecode.LC_MRT_TRF_3_6613A_1" nphases=1 basefreq=60 r1=15000 x1=0 units=km normamps=0
New "Linecode.LC_MRT_TRF_3_6613A_2" nphases=2 basefreq=60 r1=15000 x1=0 units=km normamps=0
New "Linecode.LC_MRT_TRF_3_6613A_3" nphases=3 basefreq=60 r1=15000 x1=0 units=km normamps=0
New "Linecode.LC_MRT_TRF_3_6613A_4" nphases=4 basefreq=60 r1=15000 x1=0 units=km normamps=0
New "Line.Resist_MTR_TRF_3_6613A" phases=1 bus1="730651.2" bus2="MRT_730651TRF_3_6613A.2" linecode="LC_MRT_TRF_3_6613A_1" length=0.001 units=km 

New "Transformer.TRF_21_2906A" phases=3 windings=2 buses=["71651.1.2.3" "ET21_2906.1.2.3.4"] conns=[Delta Wye] kvs=[23.1 0.38]  kvas=[30 30] %loadloss=2.100000 %noloadloss=0.533333
New "Reactor.TRF_21_2906A_R" phases=1 bus1=ET21_2906.4 R=15 X=0 basefreq=60

New "Transformer.TRF_3_6559A" phases=3 windings=2 buses=["823981.1.2.3" "ET3_6559.1.2.3.4"] conns=[Delta Wye] kvs=[23.1 0.38]  kvas=[75 75] %loadloss=3.840000 %noloadloss=0.966667
New "Reactor.TRF_3_6559A_R" phases=1 bus1=ET3_6559.4 R=15 X=0 basefreq=60

New "Transformer.TRF_3_6560A" phases=3 windings=2 buses=["824081.1.2.3" "ET3_6560.1.2.3.4"] conns=[Delta Wye] kvs=[23.1 0.38]  kvas=[75 75] %loadloss=3.840000 %noloadloss=0.966667
New "Reactor.TRF_3_6560A_R" phases=1 bus1=ET3_6560.4 R=15 X=0 basefreq=60

New "Transformer.TRF_3_6561A" phases=3 windings=2 buses=["824151.1.2.3" "ET3_6561.1.2.3.4"] conns=[Delta Wye] kvs=[23.1 0.38]  kvas=[75 75] %loadloss=3.840000 %noloadloss=0.966667
New "Reactor.TRF_3_6561A_R" phases=1 bus1=ET3_6561.4 R=15 X=0 basefreq=60

New "Transformer.TRF_3_6545A" phases=3 windings=2 buses=["823221.1.2.3" "ET3_6545.1.2.3.4"] conns=[Delta Wye] kvs=[23.1 0.38]  kvas=[15 15] %loadloss=2.500000 %noloadloss=0.633333
New "Reactor.TRF_3_6545A_R" phases=1 bus1=ET3_6545.4 R=15 X=0 basefreq=60

New "Transformer.TRF_3_6591A" phases=1 windings=3 buses=["MRT_827251TRF_3_6591A.2" "ET3_6591.1.4" "ET3_6591.4.2" ] conns=[Wye Wye Wye] kvs=[13.3367912182804 0.22 0.22]  kvas=[25 25 25] %loadloss=1.560000 %noloadloss=0.360000
New "Reactor.TRF_3_6591A_R" phases=1 bus1=ET3_6591.4 R=15 X=0 basefreq=60
New "Linecode.LC_MRT_TRF_3_6591A_1" nphases=1 basefreq=60 r1=15000 x1=0 units=km normamps=0
New "Linecode.LC_MRT_TRF_3_6591A_2" nphases=2 basefreq=60 r1=15000 x1=0 units=km normamps=0
New "Linecode.LC_MRT_TRF_3_6591A_3" nphases=3 basefreq=60 r1=15000 x1=0 units=km normamps=0
New "Linecode.LC_MRT_TRF_3_6591A_4" nphases=4 basefreq=60 r1=15000 x1=0 units=km normamps=0
New "Line.Resist_MTR_TRF_3_6591A" phases=1 bus1="827251.2" bus2="MRT_827251TRF_3_6591A.2" linecode="LC_MRT_TRF_3_6591A_1" length=0.001 units=km 

New "Transformer.TRF_3_3629A" phases=3 windings=2 buses=["624341.1.2.3" "ET3_3629.1.2.3.4"] conns=[Delta Wye] kvs=[23.1 0.38]  kvas=[15 15] %loadloss=2.500000 %noloadloss=0.633333
New "Reactor.TRF_3_3629A_R" phases=1 bus1=ET3_3629.4 R=15 X=0 basefreq=60

New "Transformer.TRF_3_4022A" phases=3 windings=2 buses=["117981.1.2.3" "ET3_4022.1.2.3.4"] conns=[Delta Wye] kvs=[23.1 0.38]  kvas=[30 30] %loadloss=2.100000 %noloadloss=0.533333
New "Reactor.TRF_3_4022A_R" phases=1 bus1=ET3_4022.4 R=15 X=0 basefreq=60

New "Transformer.TRF_3_5210A" phases=1 windings=3 buses=["MRT_6801TRF_3_5210A.3" "ET3_5210.1.4" "ET3_5210.4.2" ] conns=[Wye Wye Wye] kvs=[13.3367912182804 0.22 0.22]  kvas=[10 10 10] %loadloss=1.950000 %noloadloss=0.500000
New "Reactor.TRF_3_5210A_R" phases=1 bus1=ET3_5210.4 R=15 X=0 basefreq=60
New "Linecode.LC_MRT_TRF_3_5210A_1" nphases=1 basefreq=60 r1=15000 x1=0 units=km normamps=0
New "Linecode.LC_MRT_TRF_3_5210A_2" nphases=2 basefreq=60 r1=15000 x1=0 units=km normamps=0
New "Linecode.LC_MRT_TRF_3_5210A_3" nphases=3 basefreq=60 r1=15000 x1=0 units=km normamps=0
New "Linecode.LC_MRT_TRF_3_5210A_4" nphases=4 basefreq=60 r1=15000 x1=0 units=km normamps=0
New "Line.Resist_MTR_TRF_3_5210A" phases=1 bus1="6801.3" bus2="MRT_6801TRF_3_5210A.3" linecode="LC_MRT_TRF_3_5210A_1" length=0.001 units=km 

New "Transformer.TRF_3_5471A" phases=1 windings=3 buses=["MRT_692251TRF_3_5471A.3" "ET3_5471.1.4" "ET3_5471.4.2" ] conns=[Wye Wye Wye] kvs=[13.3367912182804 0.22 0.22]  kvas=[10 10 10] %loadloss=1.950000 %noloadloss=0.500000
New "Reactor.TRF_3_5471A_R" phases=1 bus1=ET3_5471.4 R=15 X=0 basefreq=60
New "Linecode.LC_MRT_TRF_3_5471A_1" nphases=1 basefreq=60 r1=15000 x1=0 units=km normamps=0
New "Linecode.LC_MRT_TRF_3_5471A_2" nphases=2 basefreq=60 r1=15000 x1=0 units=km normamps=0
New "Linecode.LC_MRT_TRF_3_5471A_3" nphases=3 basefreq=60 r1=15000 x1=0 units=km normamps=0
New "Linecode.LC_MRT_TRF_3_5471A_4" nphases=4 basefreq=60 r1=15000 x1=0 units=km normamps=0
New "Line.Resist_MTR_TRF_3_5471A" phases=1 bus1="692251.3" bus2="MRT_692251TRF_3_5471A.3" linecode="LC_MRT_TRF_3_5471A_1" length=0.001 units=km 

New "Transformer.TRF_3_118A" phases=3 windings=2 buses=["341211.1.2.3" "ET3_118.1.2.3.4"] conns=[Delta Wye] kvs=[23.1 0.38]  kvas=[75 75] %loadloss=3.840000 %noloadloss=0.966667
New "Reactor.TRF_3_118A_R" phases=1 bus1=ET3_118.4 R=15 X=0 basefreq=60

New "Transformer.TRF_3_5241A" phases=3 windings=2 buses=["680671.1.2.3" "ET3_5241.1.2.3.4"] conns=[Delta Wye] kvs=[23.1 0.38]  kvas=[75 75] %loadloss=3.840000 %noloadloss=0.966667
New "Reactor.TRF_3_5241A_R" phases=1 bus1=ET3_5241.4 R=15 X=0 basefreq=60

New "Transformer.TRF_3_5456A" phases=3 windings=2 buses=["682581.1.2.3" "ET3_5456.1.2.3.4"] conns=[Delta Wye] kvs=[23.1 0.38]  kvas=[75 75] %loadloss=3.840000 %noloadloss=0.966667
New "Reactor.TRF_3_5456A_R" phases=1 bus1=ET3_5456.4 R=15 X=0 basefreq=60

New "Transformer.TRF_3_5378A" phases=3 windings=2 buses=["742861.1.2.3" "ET3_5378.1.2.3.4"] conns=[Delta Wye] kvs=[23.1 0.38]  kvas=[75 75] %loadloss=3.840000 %noloadloss=0.966667
New "Reactor.TRF_3_5378A_R" phases=1 bus1=ET3_5378.4 R=15 X=0 basefreq=60

New "Transformer.TRF_3_3847A" phases=3 windings=2 buses=["646181.1.2.3" "ET3_3847.1.2.3.4"] conns=[Delta Wye] kvs=[23.1 0.38]  kvas=[15 15] %loadloss=2.500000 %noloadloss=0.633333
New "Reactor.TRF_3_3847A_R" phases=1 bus1=ET3_3847.4 R=15 X=0 basefreq=60

New "Transformer.TRF_3_5410A" phases=3 windings=2 buses=["673841.1.2.3" "ET3_5410.1.2.3.4"] conns=[Delta Wye] kvs=[23.1 0.38]  kvas=[75 75] %loadloss=3.840000 %noloadloss=0.966667
New "Reactor.TRF_3_5410A_R" phases=1 bus1=ET3_5410.4 R=15 X=0 basefreq=60

New "Transformer.TRF_3_316A" phases=3 windings=2 buses=["144751.1.2.3" "ET3_316.1.2.3.4"] conns=[Delta Wye] kvs=[23.1 0.38]  kvas=[30 30] %loadloss=2.100000 %noloadloss=0.533333
New "Reactor.TRF_3_316A_R" phases=1 bus1=ET3_316.4 R=15 X=0 basefreq=60

New "Transformer.TRF_3_5209A" phases=3 windings=2 buses=["436711.1.2.3" "ET3_5209.1.2.3.4"] conns=[Delta Wye] kvs=[23.1 0.38]  kvas=[30 30] %loadloss=2.100000 %noloadloss=0.533333
New "Reactor.TRF_3_5209A_R" phases=1 bus1=ET3_5209.4 R=15 X=0 basefreq=60

New "Transformer.TRF_3_5233A" phases=3 windings=2 buses=["745081.1.2.3" "ET3_5233.1.2.3.4"] conns=[Delta Wye] kvs=[23.1 0.38]  kvas=[45 45] %loadloss=1.866667 %noloadloss=0.477778
New "Reactor.TRF_3_5233A_R" phases=1 bus1=ET3_5233.4 R=15 X=0 basefreq=60

New "Transformer.TRF_3_5237A" phases=3 windings=2 buses=["679621.1.2.3" "ET3_5237.1.2.3.4"] conns=[Delta Wye] kvs=[23.1 0.38]  kvas=[45 45] %loadloss=1.866667 %noloadloss=0.477778
New "Reactor.TRF_3_5237A_R" phases=1 bus1=ET3_5237.4 R=15 X=0 basefreq=60

New "Transformer.TRF_3_5236A" phases=3 windings=2 buses=["679741.1.2.3" "ET3_5236.1.2.3.4"] conns=[Delta Wye] kvs=[23.1 0.38]  kvas=[45 45] %loadloss=1.866667 %noloadloss=0.477778
New "Reactor.TRF_3_5236A_R" phases=1 bus1=ET3_5236.4 R=15 X=0 basefreq=60

New "Transformer.TRF_3_5235A" phases=3 windings=2 buses=["109511.1.2.3" "ET3_5235.1.2.3.4"] conns=[Delta Wye] kvs=[23.1 0.38]  kvas=[75 75] %loadloss=3.840000 %noloadloss=0.966667
New "Reactor.TRF_3_5235A_R" phases=1 bus1=ET3_5235.4 R=15 X=0 basefreq=60

New "Transformer.TRF_3_5010A" phases=1 windings=3 buses=["MRT_436671TRF_3_5010A.2" "ET3_5010.1.4" "ET3_5010.4.2" ] conns=[Wye Wye Wye] kvs=[13.3367912182804 0.22 0.22]  kvas=[10 10 10] %loadloss=1.950000 %noloadloss=0.500000
New "Reactor.TRF_3_5010A_R" phases=1 bus1=ET3_5010.4 R=15 X=0 basefreq=60
New "Linecode.LC_MRT_TRF_3_5010A_1" nphases=1 basefreq=60 r1=15000 x1=0 units=km normamps=0
New "Linecode.LC_MRT_TRF_3_5010A_2" nphases=2 basefreq=60 r1=15000 x1=0 units=km normamps=0
New "Linecode.LC_MRT_TRF_3_5010A_3" nphases=3 basefreq=60 r1=15000 x1=0 units=km normamps=0
New "Linecode.LC_MRT_TRF_3_5010A_4" nphases=4 basefreq=60 r1=15000 x1=0 units=km normamps=0
New "Line.Resist_MTR_TRF_3_5010A" phases=1 bus1="436671.2" bus2="MRT_436671TRF_3_5010A.2" linecode="LC_MRT_TRF_3_5010A_1" length=0.001 units=km 

New "Transformer.TRF_21_4446A" phases=3 windings=2 buses=["303111.1.2.3" "ET21_4446.1.2.3.4"] conns=[Delta Wye] kvs=[23.1 0.38]  kvas=[112.5 112.5] %loadloss=1.475556 %noloadloss=0.377778
New "Reactor.TRF_21_4446A_R" phases=1 bus1=ET21_4446.4 R=15 X=0 basefreq=60

New "Transformer.TRF_21_4225A" phases=3 windings=2 buses=["659281.1.2.3" "ET21_4225.1.2.3.4"] conns=[Delta Wye] kvs=[23.1 0.38]  kvas=[30 30] %loadloss=2.100000 %noloadloss=0.533333
New "Reactor.TRF_21_4225A_R" phases=1 bus1=ET21_4225.4 R=15 X=0 basefreq=60

New "Transformer.TRF_3_117A" phases=3 windings=2 buses=["101291.1.2.3" "ET3_117.1.2.3.4"] conns=[Delta Wye] kvs=[23.1 0.38]  kvas=[30 30] %loadloss=2.100000 %noloadloss=0.533333
New "Reactor.TRF_3_117A_R" phases=1 bus1=ET3_117.4 R=15 X=0 basefreq=60

New "Transformer.TRF_3_4131A" phases=3 windings=2 buses=["149061.1.2.3" "ET3_4131.1.2.3.4"] conns=[Delta Wye] kvs=[23.1 0.38]  kvas=[45 45] %loadloss=1.866667 %noloadloss=0.477778
New "Reactor.TRF_3_4131A_R" phases=1 bus1=ET3_4131.4 R=15 X=0 basefreq=60

New "Transformer.TRF_21_4536A" phases=1 windings=3 buses=["MRT_671241TRF_21_4536A.1" "ET21_4536.1.4" "ET21_4536.4.2" ] conns=[Wye Wye Wye] kvs=[13.3367912182804 0.22 0.22]  kvas=[10 10 10] %loadloss=1.950000 %noloadloss=0.500000
New "Reactor.TRF_21_4536A_R" phases=1 bus1=ET21_4536.4 R=15 X=0 basefreq=60
New "Linecode.LC_MRT_TRF_21_4536A_1" nphases=1 basefreq=60 r1=15000 x1=0 units=km normamps=0
New "Linecode.LC_MRT_TRF_21_4536A_2" nphases=2 basefreq=60 r1=15000 x1=0 units=km normamps=0
New "Linecode.LC_MRT_TRF_21_4536A_3" nphases=3 basefreq=60 r1=15000 x1=0 units=km normamps=0
New "Linecode.LC_MRT_TRF_21_4536A_4" nphases=4 basefreq=60 r1=15000 x1=0 units=km normamps=0
New "Line.Resist_MTR_TRF_21_4536A" phases=1 bus1="671241.1" bus2="MRT_671241TRF_21_4536A.1" linecode="LC_MRT_TRF_21_4536A_1" length=0.001 units=km 

New "Transformer.TRF_21_4811A" phases=3 windings=2 buses=["10241.1.2.3" "ET21_4811.1.2.3.4"] conns=[Delta Wye] kvs=[23.1 0.38]  kvas=[30 30] %loadloss=2.100000 %noloadloss=0.533333
New "Reactor.TRF_21_4811A_R" phases=1 bus1=ET21_4811.4 R=15 X=0 basefreq=60

New "Transformer.TRF_3_4868A" phases=3 windings=2 buses=["708241.1.2.3" "ET3_4868.1.2.3.4"] conns=[Delta Wye] kvs=[23.1 0.38]  kvas=[45 45] %loadloss=1.866667 %noloadloss=0.477778
New "Reactor.TRF_3_4868A_R" phases=1 bus1=ET3_4868.4 R=15 X=0 basefreq=60

New "Transformer.TRF_3_4867A" phases=3 windings=2 buses=["708291.1.2.3" "ET3_4867.1.2.3.4"] conns=[Delta Wye] kvs=[23.1 0.38]  kvas=[45 45] %loadloss=1.866667 %noloadloss=0.477778
New "Reactor.TRF_3_4867A_R" phases=1 bus1=ET3_4867.4 R=15 X=0 basefreq=60

New "Transformer.TRF_3_4262A" phases=3 windings=2 buses=["629261.1.2.3" "ET3_4262.1.2.3.4"] conns=[Delta Wye] kvs=[23.1 0.38]  kvas=[30 30] %loadloss=2.100000 %noloadloss=0.533333
New "Reactor.TRF_3_4262A_R" phases=1 bus1=ET3_4262.4 R=15 X=0 basefreq=60

New "Transformer.TRF_21_1397A" phases=3 windings=2 buses=["303121.1.2.3" "ET21_1397.1.2.3.4"] conns=[Delta Wye] kvs=[23.1 0.38]  kvas=[15 15] %loadloss=2.500000 %noloadloss=0.633333
New "Reactor.TRF_21_1397A_R" phases=1 bus1=ET21_1397.4 R=15 X=0 basefreq=60

New "Transformer.TRF_3_4211A" phases=3 windings=2 buses=["669081.1.2.3" "ET3_4211.1.2.3.4"] conns=[Delta Wye] kvs=[23.1 0.38]  kvas=[30 30] %loadloss=2.100000 %noloadloss=0.533333
New "Reactor.TRF_3_4211A_R" phases=1 bus1=ET3_4211.4 R=15 X=0 basefreq=60

New "Transformer.TRF_3_4220A" phases=3 windings=2 buses=["576261.1.2.3" "ET3_4220.1.2.3.4"] conns=[Delta Wye] kvs=[23.1 0.38]  kvas=[30 30] %loadloss=2.100000 %noloadloss=0.533333
New "Reactor.TRF_3_4220A_R" phases=1 bus1=ET3_4220.4 R=15 X=0 basefreq=60

New "Transformer.TRF_3_4212A" phases=3 windings=2 buses=["668921.1.2.3" "ET3_4212.1.2.3.4"] conns=[Delta Wye] kvs=[23.1 0.38]  kvas=[15 15] %loadloss=2.500000 %noloadloss=0.633333
New "Reactor.TRF_3_4212A_R" phases=1 bus1=ET3_4212.4 R=15 X=0 basefreq=60

New "Transformer.TRF_3_3785A" phases=3 windings=2 buses=["422861.1.2.3" "ET3_3785.1.2.3.4"] conns=[Delta Wye] kvs=[23.1 0.38]  kvas=[45 45] %loadloss=1.866667 %noloadloss=0.477778
New "Reactor.TRF_3_3785A_R" phases=1 bus1=ET3_3785.4 R=15 X=0 basefreq=60

New "Transformer.TRF_3_424A" phases=3 windings=2 buses=["131441.1.2.3" "ET3_424.1.2.3.4"] conns=[Delta Wye] kvs=[23.1 0.38]  kvas=[75 75] %loadloss=3.840000 %noloadloss=0.966667
New "Reactor.TRF_3_424A_R" phases=1 bus1=ET3_424.4 R=15 X=0 basefreq=60

New "Transformer.TRF_3_110A" phases=3 windings=2 buses=["126321.1.2.3" "ET3_110.1.2.3.4"] conns=[Delta Wye] kvs=[23.1 0.38]  kvas=[75 75] %loadloss=3.840000 %noloadloss=0.966667
New "Reactor.TRF_3_110A_R" phases=1 bus1=ET3_110.4 R=15 X=0 basefreq=60

New "Transformer.TRF_3_525A" phases=3 windings=2 buses=["148771.1.2.3" "ET3_525.1.2.3.4"] conns=[Delta Wye] kvs=[23.1 0.38]  kvas=[30 30] %loadloss=2.100000 %noloadloss=0.533333
New "Reactor.TRF_3_525A_R" phases=1 bus1=ET3_525.4 R=15 X=0 basefreq=60

New "Transformer.TRF_3_4208A" phases=3 windings=2 buses=["668961.1.2.3" "ET3_4208.1.2.3.4"] conns=[Delta Wye] kvs=[23.1 0.38]  kvas=[30 30] %loadloss=2.100000 %noloadloss=0.533333
New "Reactor.TRF_3_4208A_R" phases=1 bus1=ET3_4208.4 R=15 X=0 basefreq=60

New "Transformer.TRF_3_3270A" phases=3 windings=2 buses=["564321.1.2.3" "ET3_3270.1.2.3.4"] conns=[Delta Wye] kvs=[23.1 0.38]  kvas=[30 30] %loadloss=2.100000 %noloadloss=0.533333
New "Reactor.TRF_3_3270A_R" phases=1 bus1=ET3_3270.4 R=15 X=0 basefreq=60

New "Transformer.TRF_3_4345A" phases=3 windings=2 buses=["620451.1.2.3" "ET3_4345.1.2.3.4"] conns=[Delta Wye] kvs=[23.1 0.38]  kvas=[45 45] %loadloss=1.866667 %noloadloss=0.477778
New "Reactor.TRF_3_4345A_R" phases=1 bus1=ET3_4345.4 R=15 X=0 basefreq=60

New "Transformer.TRF_3_2518A" phases=1 windings=3 buses=["MRT_84181TRF_3_2518A.2" "ET3_2518.1.4" "ET3_2518.4.2" ] conns=[Wye Wye Wye] kvs=[13.3367912182804 0.22 0.22]  kvas=[10 10 10] %loadloss=1.950000 %noloadloss=0.500000
New "Reactor.TRF_3_2518A_R" phases=1 bus1=ET3_2518.4 R=15 X=0 basefreq=60
New "Linecode.LC_MRT_TRF_3_2518A_1" nphases=1 basefreq=60 r1=15000 x1=0 units=km normamps=0
New "Linecode.LC_MRT_TRF_3_2518A_2" nphases=2 basefreq=60 r1=15000 x1=0 units=km normamps=0
New "Linecode.LC_MRT_TRF_3_2518A_3" nphases=3 basefreq=60 r1=15000 x1=0 units=km normamps=0
New "Linecode.LC_MRT_TRF_3_2518A_4" nphases=4 basefreq=60 r1=15000 x1=0 units=km normamps=0
New "Line.Resist_MTR_TRF_3_2518A" phases=1 bus1="84181.2" bus2="MRT_84181TRF_3_2518A.2" linecode="LC_MRT_TRF_3_2518A_1" length=0.001 units=km 

New "Transformer.TRF_3_1907A" phases=1 windings=3 buses=["23691.1.2" "ET3_1907.1.4" "ET3_1907.4.2" ] conns=[Delta Wye Wye] kvs=[23.1 0.22 0.22]  kvas=[10 10 10] %loadloss=1.150000 %noloadloss=0.400000
New "Reactor.TRF_3_1907A_R" phases=1 bus1=ET3_1907.4 R=15 X=0 basefreq=60

New "Transformer.TRF_3_389A" phases=1 windings=3 buses=["23751.1.2" "ET3_389.1.4" "ET3_389.4.2" ] conns=[Delta Wye Wye] kvs=[23.1 0.22 0.22]  kvas=[15 15 15] %loadloss=1.933333 %noloadloss=0.500000
New "Reactor.TRF_3_389A_R" phases=1 bus1=ET3_389.4 R=15 X=0 basefreq=60

New "Transformer.TRF_3_2440A" phases=3 windings=2 buses=["330361.1.2.3" "ET3_2440.1.2.3.4"] conns=[Delta Wye] kvs=[23.1 0.38]  kvas=[15 15] %loadloss=2.500000 %noloadloss=0.633333
New "Reactor.TRF_3_2440A_R" phases=1 bus1=ET3_2440.4 R=15 X=0 basefreq=60

New "Transformer.TRF_3_4343A" phases=3 windings=2 buses=["385751.1.2.3" "ET3_4343.1.2.3.4"] conns=[Delta Wye] kvs=[23.1 0.38]  kvas=[15 15] %loadloss=2.500000 %noloadloss=0.633333
New "Reactor.TRF_3_4343A_R" phases=1 bus1=ET3_4343.4 R=15 X=0 basefreq=60

New "Transformer.TRF_21_138A" phases=3 windings=2 buses=["71501.1.2.3" "ET21_138.1.2.3.4"] conns=[Delta Wye] kvs=[23.1 0.38]  kvas=[30 30] %loadloss=2.100000 %noloadloss=0.533333
New "Reactor.TRF_21_138A_R" phases=1 bus1=ET21_138.4 R=15 X=0 basefreq=60

New "Transformer.TRF_3_3520A" phases=3 windings=2 buses=["359431.1.2.3" "ET3_3520.1.2.3.4"] conns=[Delta Wye] kvs=[23.1 0.38]  kvas=[15 15] %loadloss=2.500000 %noloadloss=0.633333
New "Reactor.TRF_3_3520A_R" phases=1 bus1=ET3_3520.4 R=15 X=0 basefreq=60

New "Transformer.TRF_21_1202A" phases=3 windings=2 buses=["333021.1.2.3" "ET21_1202.1.2.3.4"] conns=[Delta Wye] kvs=[23.1 0.38]  kvas=[30 30] %loadloss=2.100000 %noloadloss=0.533333
New "Reactor.TRF_21_1202A_R" phases=1 bus1=ET21_1202.4 R=15 X=0 basefreq=60

New "Transformer.TRF_3_3343A" phases=3 windings=2 buses=["104021.1.2.3" "ET3_3343.1.2.3.4"] conns=[Delta Wye] kvs=[23.1 0.38]  kvas=[15 15] %loadloss=2.500000 %noloadloss=0.633333
New "Reactor.TRF_3_3343A_R" phases=1 bus1=ET3_3343.4 R=15 X=0 basefreq=60

New "Transformer.TRF_3_1556A" phases=3 windings=2 buses=["40391.1.2.3" "ET3_1556.1.2.3.4"] conns=[Delta Wye] kvs=[23.1 0.38]  kvas=[15 15] %loadloss=2.500000 %noloadloss=0.633333
New "Reactor.TRF_3_1556A_R" phases=1 bus1=ET3_1556.4 R=15 X=0 basefreq=60

New "Transformer.TRF_3_1619A" phases=3 windings=2 buses=["124691.1.2.3" "ET3_1619.1.2.3.4"] conns=[Delta Wye] kvs=[23.1 0.38]  kvas=[15 15] %loadloss=2.500000 %noloadloss=0.633333
New "Reactor.TRF_3_1619A_R" phases=1 bus1=ET3_1619.4 R=15 X=0 basefreq=60

New "Transformer.TRF_21_5328A" phases=3 windings=2 buses=["645031.1.2.3" "ET21_5328.1.2.3.4"] conns=[Delta Wye] kvs=[23.1 0.38]  kvas=[30 30] %loadloss=2.100000 %noloadloss=0.533333
New "Reactor.TRF_21_5328A_R" phases=1 bus1=ET21_5328.4 R=15 X=0 basefreq=60

New "Transformer.TRF_3_2010A" phases=3 windings=2 buses=["111241.1.2.3" "ET3_2010.1.2.3.4"] conns=[Delta Wye] kvs=[23.1 0.38]  kvas=[30 30] %loadloss=2.100000 %noloadloss=0.533333
New "Reactor.TRF_3_2010A_R" phases=1 bus1=ET3_2010.4 R=15 X=0 basefreq=60

New "Transformer.TRF_21_143A" phases=3 windings=2 buses=["70671.1.2.3" "ET21_143.1.2.3.4"] conns=[Delta Wye] kvs=[23.1 0.38]  kvas=[45 45] %loadloss=1.866667 %noloadloss=0.477778
New "Reactor.TRF_21_143A_R" phases=1 bus1=ET21_143.4 R=15 X=0 basefreq=60

New "Transformer.TRF_3_2517A" phases=1 windings=3 buses=["MRT_17551TRF_3_2517A.1" "ET3_2517.1.4" "ET3_2517.4.2" ] conns=[Wye Wye Wye] kvs=[13.3367912182804 0.22 0.22]  kvas=[15 15 15] %loadloss=1.766667 %noloadloss=0.433333
New "Reactor.TRF_3_2517A_R" phases=1 bus1=ET3_2517.4 R=15 X=0 basefreq=60
New "Linecode.LC_MRT_TRF_3_2517A_1" nphases=1 basefreq=60 r1=15000 x1=0 units=km normamps=0
New "Linecode.LC_MRT_TRF_3_2517A_2" nphases=2 basefreq=60 r1=15000 x1=0 units=km normamps=0
New "Linecode.LC_MRT_TRF_3_2517A_3" nphases=3 basefreq=60 r1=15000 x1=0 units=km normamps=0
New "Linecode.LC_MRT_TRF_3_2517A_4" nphases=4 basefreq=60 r1=15000 x1=0 units=km normamps=0
New "Line.Resist_MTR_TRF_3_2517A" phases=1 bus1="17551.1" bus2="MRT_17551TRF_3_2517A.1" linecode="LC_MRT_TRF_3_2517A_1" length=0.001 units=km 

New "Transformer.TRF_21_121A" phases=1 windings=3 buses=["MRT_27541TRF_21_121A.3" "ET21_121.1.4" "ET21_121.4.2" ] conns=[Wye Wye Wye] kvs=[13.3367912182804 0.22 0.22]  kvas=[10 10 10] %loadloss=1.950000 %noloadloss=0.500000
New "Reactor.TRF_21_121A_R" phases=1 bus1=ET21_121.4 R=15 X=0 basefreq=60
New "Linecode.LC_MRT_TRF_21_121A_1" nphases=1 basefreq=60 r1=15000 x1=0 units=km normamps=0
New "Linecode.LC_MRT_TRF_21_121A_2" nphases=2 basefreq=60 r1=15000 x1=0 units=km normamps=0
New "Linecode.LC_MRT_TRF_21_121A_3" nphases=3 basefreq=60 r1=15000 x1=0 units=km normamps=0
New "Linecode.LC_MRT_TRF_21_121A_4" nphases=4 basefreq=60 r1=15000 x1=0 units=km normamps=0
New "Line.Resist_MTR_TRF_21_121A" phases=1 bus1="27541.3" bus2="MRT_27541TRF_21_121A.3" linecode="LC_MRT_TRF_21_121A_1" length=0.001 units=km 

New "Transformer.TRF_3_2758A" phases=3 windings=2 buses=["366731.1.2.3" "ET3_2758.1.2.3.4"] conns=[Delta Wye] kvs=[23.1 0.38]  kvas=[15 15] %loadloss=2.500000 %noloadloss=0.633333
New "Reactor.TRF_3_2758A_R" phases=1 bus1=ET3_2758.4 R=15 X=0 basefreq=60

New "Transformer.TRF_3_108A" phases=3 windings=2 buses=["117871.1.2.3" "ET3_108.1.2.3.4"] conns=[Delta Wye] kvs=[23.1 0.38]  kvas=[45 45] %loadloss=1.866667 %noloadloss=0.477778
New "Reactor.TRF_3_108A_R" phases=1 bus1=ET3_108.4 R=15 X=0 basefreq=60

New "Transformer.TRF_3_113A" phases=3 windings=2 buses=["104911.1.2.3" "ET3_113.1.2.3.4"] conns=[Delta Wye] kvs=[23.1 0.38]  kvas=[45 45] %loadloss=1.866667 %noloadloss=0.477778
New "Reactor.TRF_3_113A_R" phases=1 bus1=ET3_113.4 R=15 X=0 basefreq=60

New "Transformer.TRF_3_3718A" phases=1 windings=3 buses=["MRT_85851TRF_3_3718A.3" "ET3_3718.1.4" "ET3_3718.4.2" ] conns=[Wye Wye Wye] kvs=[13.3367912182804 0.22 0.22]  kvas=[10 10 10] %loadloss=1.950000 %noloadloss=0.500000
New "Reactor.TRF_3_3718A_R" phases=1 bus1=ET3_3718.4 R=15 X=0 basefreq=60
New "Linecode.LC_MRT_TRF_3_3718A_1" nphases=1 basefreq=60 r1=15000 x1=0 units=km normamps=0
New "Linecode.LC_MRT_TRF_3_3718A_2" nphases=2 basefreq=60 r1=15000 x1=0 units=km normamps=0
New "Linecode.LC_MRT_TRF_3_3718A_3" nphases=3 basefreq=60 r1=15000 x1=0 units=km normamps=0
New "Linecode.LC_MRT_TRF_3_3718A_4" nphases=4 basefreq=60 r1=15000 x1=0 units=km normamps=0
New "Line.Resist_MTR_TRF_3_3718A" phases=1 bus1="85851.3" bus2="MRT_85851TRF_3_3718A.3" linecode="LC_MRT_TRF_3_3718A_1" length=0.001 units=km 

New "Transformer.TRF_3_4382A" phases=3 windings=2 buses=["581641.1.2.3" "ET3_4382.1.2.3.4"] conns=[Delta Wye] kvs=[23.1 0.38]  kvas=[112.5 112.5] %loadloss=1.475556 %noloadloss=0.377778
New "Reactor.TRF_3_4382A_R" phases=1 bus1=ET3_4382.4 R=15 X=0 basefreq=60

New "Transformer.TRF_3_5126A" phases=3 windings=2 buses=["20581.1.2.3" "ET3_5126.1.2.3.4"] conns=[Delta Wye] kvs=[23.1 0.38]  kvas=[45 45] %loadloss=1.866667 %noloadloss=0.477778
New "Reactor.TRF_3_5126A_R" phases=1 bus1=ET3_5126.4 R=15 X=0 basefreq=60

New "Transformer.TRF_21_325A" phases=3 windings=2 buses=["105021.1.2.3" "ET21_325.1.2.3.4"] conns=[Delta Wye] kvs=[23.1 0.38]  kvas=[45 45] %loadloss=1.866667 %noloadloss=0.477778
New "Reactor.TRF_21_325A_R" phases=1 bus1=ET21_325.4 R=15 X=0 basefreq=60

New "Transformer.TRF_3_2126A" phases=3 windings=2 buses=["85401.1.2.3" "ET3_2126.1.2.3.4"] conns=[Delta Wye] kvs=[23.1 0.38]  kvas=[30 30] %loadloss=2.100000 %noloadloss=0.533333
New "Reactor.TRF_3_2126A_R" phases=1 bus1=ET3_2126.4 R=15 X=0 basefreq=60

New "Transformer.TRF_3_3173A" phases=1 windings=3 buses=["MRT_149371TRF_3_3173A.3" "ET3_3173.1.4" "ET3_3173.4.2" ] conns=[Wye Wye Wye] kvs=[13.3367912182804 0.22 0.22]  kvas=[10 10 10] %loadloss=1.950000 %noloadloss=0.500000
New "Reactor.TRF_3_3173A_R" phases=1 bus1=ET3_3173.4 R=15 X=0 basefreq=60
New "Linecode.LC_MRT_TRF_3_3173A_1" nphases=1 basefreq=60 r1=15000 x1=0 units=km normamps=0
New "Linecode.LC_MRT_TRF_3_3173A_2" nphases=2 basefreq=60 r1=15000 x1=0 units=km normamps=0
New "Linecode.LC_MRT_TRF_3_3173A_3" nphases=3 basefreq=60 r1=15000 x1=0 units=km normamps=0
New "Linecode.LC_MRT_TRF_3_3173A_4" nphases=4 basefreq=60 r1=15000 x1=0 units=km normamps=0
New "Line.Resist_MTR_TRF_3_3173A" phases=1 bus1="149371.3" bus2="MRT_149371TRF_3_3173A.3" linecode="LC_MRT_TRF_3_3173A_1" length=0.001 units=km 

New "Transformer.TRF_3_5250A" phases=3 windings=2 buses=["144691.1.2.3" "ET3_5250.1.2.3.4"] conns=[Delta Wye] kvs=[23.1 0.38]  kvas=[45 45] %loadloss=1.866667 %noloadloss=0.477778
New "Reactor.TRF_3_5250A_R" phases=1 bus1=ET3_5250.4 R=15 X=0 basefreq=60

New "Transformer.TRF_3_786A" phases=1 windings=3 buses=["MRT_267601TRF_3_786A.3" "ET3_786.1.4" "ET3_786.4.2" ] conns=[Wye Wye Wye] kvs=[13.3367912182804 0.22 0.22]  kvas=[15 15 15] %loadloss=1.766667 %noloadloss=0.433333
New "Reactor.TRF_3_786A_R" phases=1 bus1=ET3_786.4 R=15 X=0 basefreq=60
New "Linecode.LC_MRT_TRF_3_786A_1" nphases=1 basefreq=60 r1=15000 x1=0 units=km normamps=0
New "Linecode.LC_MRT_TRF_3_786A_2" nphases=2 basefreq=60 r1=15000 x1=0 units=km normamps=0
New "Linecode.LC_MRT_TRF_3_786A_3" nphases=3 basefreq=60 r1=15000 x1=0 units=km normamps=0
New "Linecode.LC_MRT_TRF_3_786A_4" nphases=4 basefreq=60 r1=15000 x1=0 units=km normamps=0
New "Line.Resist_MTR_TRF_3_786A" phases=1 bus1="267601.3" bus2="MRT_267601TRF_3_786A.3" linecode="LC_MRT_TRF_3_786A_1" length=0.001 units=km 

New "Transformer.TRF_3_4948A" phases=1 windings=3 buses=["MRT_354291TRF_3_4948A.1" "ET3_4948.1.4" "ET3_4948.4.2" ] conns=[Wye Wye Wye] kvs=[13.3367912182804 0.22 0.22]  kvas=[10 10 10] %loadloss=1.950000 %noloadloss=0.500000
New "Reactor.TRF_3_4948A_R" phases=1 bus1=ET3_4948.4 R=15 X=0 basefreq=60
New "Linecode.LC_MRT_TRF_3_4948A_1" nphases=1 basefreq=60 r1=15000 x1=0 units=km normamps=0
New "Linecode.LC_MRT_TRF_3_4948A_2" nphases=2 basefreq=60 r1=15000 x1=0 units=km normamps=0
New "Linecode.LC_MRT_TRF_3_4948A_3" nphases=3 basefreq=60 r1=15000 x1=0 units=km normamps=0
New "Linecode.LC_MRT_TRF_3_4948A_4" nphases=4 basefreq=60 r1=15000 x1=0 units=km normamps=0
New "Line.Resist_MTR_TRF_3_4948A" phases=1 bus1="354291.1" bus2="MRT_354291TRF_3_4948A.1" linecode="LC_MRT_TRF_3_4948A_1" length=0.001 units=km 

New "Transformer.TRF_3_3277A" phases=3 windings=2 buses=["17491.1.2.3" "ET3_3277.1.2.3.4"] conns=[Delta Wye] kvs=[23.1 0.38]  kvas=[15 15] %loadloss=2.500000 %noloadloss=0.633333
New "Reactor.TRF_3_3277A_R" phases=1 bus1=ET3_3277.4 R=15 X=0 basefreq=60

New "Transformer.TRF_21_4312A" phases=3 windings=2 buses=["333411.1.2.3" "ET21_4312.1.2.3.4"] conns=[Delta Wye] kvs=[23.1 0.38]  kvas=[15 15] %loadloss=2.500000 %noloadloss=0.633333
New "Reactor.TRF_21_4312A_R" phases=1 bus1=ET21_4312.4 R=15 X=0 basefreq=60

New "Transformer.TRF_3_4060A" phases=1 windings=2 buses=["MRT_40311TRF_3_4060A.1" "ET3_4060.1.4"] conns=[Wye Wye] kvs=[13.3367912182804 0.22]  kvas=[5 5] %loadloss=2.100000 %noloadloss=0.700000
New "Reactor.TRF_3_4060A_R" phases=1 bus1=ET3_4060.4 R=15 X=0 basefreq=60
New "Linecode.LC_MRT_TRF_3_4060A_1" nphases=1 basefreq=60 r1=15000 x1=0 units=km normamps=0
New "Linecode.LC_MRT_TRF_3_4060A_2" nphases=2 basefreq=60 r1=15000 x1=0 units=km normamps=0
New "Linecode.LC_MRT_TRF_3_4060A_3" nphases=3 basefreq=60 r1=15000 x1=0 units=km normamps=0
New "Linecode.LC_MRT_TRF_3_4060A_4" nphases=4 basefreq=60 r1=15000 x1=0 units=km normamps=0
New "Line.Resist_MTR_TRF_3_4060A" phases=1 bus1="40311.1" bus2="MRT_40311TRF_3_4060A.1" linecode="LC_MRT_TRF_3_4060A_1" length=0.001 units=km 

New "Transformer.TRF_3_111A" phases=3 windings=2 buses=["364151.1.2.3" "ET3_111.1.2.3.4"] conns=[Delta Wye] kvs=[23.1 0.38]  kvas=[30 30] %loadloss=2.100000 %noloadloss=0.533333
New "Reactor.TRF_3_111A_R" phases=1 bus1=ET3_111.4 R=15 X=0 basefreq=60

New "Transformer.TRF_3_4892A" phases=1 windings=3 buses=["MRT_148911TRF_3_4892A.1" "ET3_4892.1.4" "ET3_4892.4.2" ] conns=[Wye Wye Wye] kvs=[13.3367912182804 0.22 0.22]  kvas=[5 5 5] %loadloss=2.100000 %noloadloss=0.700000
New "Reactor.TRF_3_4892A_R" phases=1 bus1=ET3_4892.4 R=15 X=0 basefreq=60
New "Linecode.LC_MRT_TRF_3_4892A_1" nphases=1 basefreq=60 r1=15000 x1=0 units=km normamps=0
New "Linecode.LC_MRT_TRF_3_4892A_2" nphases=2 basefreq=60 r1=15000 x1=0 units=km normamps=0
New "Linecode.LC_MRT_TRF_3_4892A_3" nphases=3 basefreq=60 r1=15000 x1=0 units=km normamps=0
New "Linecode.LC_MRT_TRF_3_4892A_4" nphases=4 basefreq=60 r1=15000 x1=0 units=km normamps=0
New "Line.Resist_MTR_TRF_3_4892A" phases=1 bus1="148911.1" bus2="MRT_148911TRF_3_4892A.1" linecode="LC_MRT_TRF_3_4892A_1" length=0.001 units=km 

New "Transformer.TRF_3_2532A" phases=1 windings=3 buses=["MRT_164651TRF_3_2532A.2" "ET3_2532.1.4" "ET3_2532.4.2" ] conns=[Wye Wye Wye] kvs=[13.3367912182804 0.22 0.22]  kvas=[10 10 10] %loadloss=1.950000 %noloadloss=0.500000
New "Reactor.TRF_3_2532A_R" phases=1 bus1=ET3_2532.4 R=15 X=0 basefreq=60
New "Linecode.LC_MRT_TRF_3_2532A_1" nphases=1 basefreq=60 r1=15000 x1=0 units=km normamps=0
New "Linecode.LC_MRT_TRF_3_2532A_2" nphases=2 basefreq=60 r1=15000 x1=0 units=km normamps=0
New "Linecode.LC_MRT_TRF_3_2532A_3" nphases=3 basefreq=60 r1=15000 x1=0 units=km normamps=0
New "Linecode.LC_MRT_TRF_3_2532A_4" nphases=4 basefreq=60 r1=15000 x1=0 units=km normamps=0
New "Line.Resist_MTR_TRF_3_2532A" phases=1 bus1="164651.2" bus2="MRT_164651TRF_3_2532A.2" linecode="LC_MRT_TRF_3_2532A_1" length=0.001 units=km 

New "Transformer.TRF_3_4701A" phases=3 windings=2 buses=["673391.1.2.3" "ET3_4701.1.2.3.4"] conns=[Delta Wye] kvs=[23.1 0.38]  kvas=[75 75] %loadloss=3.840000 %noloadloss=0.966667
New "Reactor.TRF_3_4701A_R" phases=1 bus1=ET3_4701.4 R=15 X=0 basefreq=60

New "Transformer.TRF_3_3961A" phases=3 windings=2 buses=["359421.1.2.3" "ET3_3961.1.2.3.4"] conns=[Delta Wye] kvs=[23.1 0.38]  kvas=[15 15] %loadloss=2.500000 %noloadloss=0.633333
New "Reactor.TRF_3_3961A_R" phases=1 bus1=ET3_3961.4 R=15 X=0 basefreq=60
