New "Load.BT_2806086_M1" bus1="UC2806086.1.4" phases=1 conn=Wye model=2 kv=0.220000000 kw = 0.02818 pf=0.92 status=variable vmaxpu=1.5 vminpu=0.6 daily="RU2_SA"  
New "Load.BT_2806086_M2" bus1="UC2806086.1.4" phases=1 conn=Wye model=3 kv=0.220000000 kw = 0.02818 pf=0.92 status=variable vmaxpu=1.5 vminpu=0.6 daily="RU2_SA" 
New "Load.BT_2805327_M1" bus1="UC2805327.1.4" phases=1 conn=Wye model=2 kv=0.220000000 kw = 0.3031885 pf=0.92 status=variable vmaxpu=1.5 vminpu=0.6 daily="RU5_SA"  
New "Load.BT_2805327_M2" bus1="UC2805327.1.4" phases=1 conn=Wye model=3 kv=0.220000000 kw = 0.3031885 pf=0.92 status=variable vmaxpu=1.5 vminpu=0.6 daily="RU5_SA" 
New "Load.BT_2830102_M1" bus1="UC2830102.1.4" phases=1 conn=Wye model=2 kv=0.220000000 kw = 0.1964695 pf=0.92 status=variable vmaxpu=1.5 vminpu=0.6 daily="RU4_SA"  
New "Load.BT_2830102_M2" bus1="UC2830102.1.4" phases=1 conn=Wye model=3 kv=0.220000000 kw = 0.1964695 pf=0.92 status=variable vmaxpu=1.5 vminpu=0.6 daily="RU4_SA" 
New "Load.BT_2836303_M1" bus1="UC2836303.1.4" phases=1 conn=Wye model=2 kv=0.220000000 kw = 0.285488 pf=0.92 status=variable vmaxpu=1.5 vminpu=0.6 daily="RU6_SA"  
New "Load.BT_2836303_M2" bus1="UC2836303.1.4" phases=1 conn=Wye model=3 kv=0.220000000 kw = 0.285488 pf=0.92 status=variable vmaxpu=1.5 vminpu=0.6 daily="RU6_SA" 
New "Load.BT_2834139_M1" bus1="UC2834139.1.2.4" phases=1 conn=Delta model=2 kv=0.440000000 kw = 0.0182845 pf=0.92 status=variable vmaxpu=1.5 vminpu=0.6 daily="RU1_SA"  
New "Load.BT_2834139_M2" bus1="UC2834139.1.2.4" phases=1 conn=Delta model=3 kv=0.440000000 kw = 0.0182845 pf=0.92 status=variable vmaxpu=1.5 vminpu=0.6 daily="RU1_SA" 
New "Load.BT_2805332_M1" bus1="UC2805332.1.2.4" phases=1 conn=Delta model=2 kv=0.440000000 kw = 0.3357885 pf=0.92 status=variable vmaxpu=1.5 vminpu=0.6 daily="RU6_SA"  
New "Load.BT_2805332_M2" bus1="UC2805332.1.2.4" phases=1 conn=Delta model=3 kv=0.440000000 kw = 0.3357885 pf=0.92 status=variable vmaxpu=1.5 vminpu=0.6 daily="RU6_SA" 
New "Load.BT_2807373_M1" bus1="UC2807373.2.4" phases=1 conn=Wye model=2 kv=0.220000000 kw = 0.25962 pf=0.92 status=variable vmaxpu=1.5 vminpu=0.6 daily="RU4_SA"  
New "Load.BT_2807373_M2" bus1="UC2807373.2.4" phases=1 conn=Wye model=3 kv=0.220000000 kw = 0.25962 pf=0.92 status=variable vmaxpu=1.5 vminpu=0.6 daily="RU4_SA" 
New "Load.BT_2818343_M1" bus1="UC2818343.2.4" phases=1 conn=Wye model=2 kv=0.219393102 kw = 0.110503 pf=0.92 status=variable vmaxpu=1.5 vminpu=0.6 daily="RU7_SA"  
New "Load.BT_2818343_M2" bus1="UC2818343.2.4" phases=1 conn=Wye model=3 kv=0.219393102 kw = 0.110503 pf=0.92 status=variable vmaxpu=1.5 vminpu=0.6 daily="RU7_SA" 
New "Load.BT_2805262_M1" bus1="UC2805262.1.4" phases=1 conn=Wye model=2 kv=0.220000000 kw = 0.04804 pf=0.92 status=variable vmaxpu=1.5 vminpu=0.6 daily="RU5_SA"  
New "Load.BT_2805262_M2" bus1="UC2805262.1.4" phases=1 conn=Wye model=3 kv=0.220000000 kw = 0.04804 pf=0.92 status=variable vmaxpu=1.5 vminpu=0.6 daily="RU5_SA" 
New "Load.BT_2826215_M1" bus1="UC2826215.1.4" phases=1 conn=Wye model=2 kv=0.219393102 kw = 0.2844635 pf=0.92 status=variable vmaxpu=1.5 vminpu=0.6 daily="RU7_SA"  
New "Load.BT_2826215_M2" bus1="UC2826215.1.4" phases=1 conn=Wye model=3 kv=0.219393102 kw = 0.2844635 pf=0.92 status=variable vmaxpu=1.5 vminpu=0.6 daily="RU7_SA" 
New "Load.BT_2805278_M1" bus1="UC2805278.2.4" phases=1 conn=Wye model=2 kv=0.220000000 kw = 0.0165965 pf=0.92 status=variable vmaxpu=1.5 vminpu=0.6 daily="RU1_SA"  
New "Load.BT_2805278_M2" bus1="UC2805278.2.4" phases=1 conn=Wye model=3 kv=0.220000000 kw = 0.0165965 pf=0.92 status=variable vmaxpu=1.5 vminpu=0.6 daily="RU1_SA" 
New "Load.BT_2817035_M1" bus1="UC2817035.2.4" phases=1 conn=Wye model=2 kv=0.220000000 kw = 0.0102955 pf=0.92 status=variable vmaxpu=1.5 vminpu=0.6 daily="RU1_SA"  
New "Load.BT_2817035_M2" bus1="UC2817035.2.4" phases=1 conn=Wye model=3 kv=0.220000000 kw = 0.0102955 pf=0.92 status=variable vmaxpu=1.5 vminpu=0.6 daily="RU1_SA" 
New "Load.BT_2818350_M1" bus1="UC2818350.1.2.3.4" phases=3 conn=Delta model=2 kv=0.380000000 kw = 4.401905 pf=0.92 status=variable vmaxpu=1.5 vminpu=0.6 daily="RE8_SA"  
New "Load.BT_2818350_M2" bus1="UC2818350.1.2.3.4" phases=3 conn=Delta model=3 kv=0.380000000 kw = 4.401905 pf=0.92 status=variable vmaxpu=1.5 vminpu=0.6 daily="RE8_SA" 
New "Load.BT_2805378_M1" bus1="UC2805378.1.4" phases=1 conn=Wye model=2 kv=0.220000000 kw = 0.2637365 pf=0.92 status=variable vmaxpu=1.5 vminpu=0.6 daily="RU6_SA"  
New "Load.BT_2805378_M2" bus1="UC2805378.1.4" phases=1 conn=Wye model=3 kv=0.220000000 kw = 0.2637365 pf=0.92 status=variable vmaxpu=1.5 vminpu=0.6 daily="RU6_SA" 
New "Load.BT_2805372_M1" bus1="UC2805372.2.4" phases=1 conn=Wye model=2 kv=0.220000000 kw = 0.15226 pf=0.92 status=variable vmaxpu=1.5 vminpu=0.6 daily="RU6_SA"  
New "Load.BT_2805372_M2" bus1="UC2805372.2.4" phases=1 conn=Wye model=3 kv=0.220000000 kw = 0.15226 pf=0.92 status=variable vmaxpu=1.5 vminpu=0.6 daily="RU6_SA" 
New "Load.BT_2805353_M1" bus1="UC2805353.1.4" phases=1 conn=Wye model=2 kv=0.220000000 kw = 0.1422315 pf=0.92 status=variable vmaxpu=1.5 vminpu=0.6 daily="RU7_SA"  
New "Load.BT_2805353_M2" bus1="UC2805353.1.4" phases=1 conn=Wye model=3 kv=0.220000000 kw = 0.1422315 pf=0.92 status=variable vmaxpu=1.5 vminpu=0.6 daily="RU7_SA" 
New "Load.BT_2805390_M1" bus1="UC2805390.1.2.4" phases=1 conn=Delta model=2 kv=0.440000000 kw = 0.316756 pf=0.92 status=variable vmaxpu=1.5 vminpu=0.6 daily="RU6_SA"  
New "Load.BT_2805390_M2" bus1="UC2805390.1.2.4" phases=1 conn=Delta model=3 kv=0.440000000 kw = 0.316756 pf=0.92 status=variable vmaxpu=1.5 vminpu=0.6 daily="RU6_SA" 
New "Load.BT_2806072_M1" bus1="UC2806072.1.4" phases=1 conn=Wye model=2 kv=0.220000000 kw = 0.0896755 pf=0.92 status=variable vmaxpu=1.5 vminpu=0.6 daily="RU5_SA"  
New "Load.BT_2806072_M2" bus1="UC2806072.1.4" phases=1 conn=Wye model=3 kv=0.220000000 kw = 0.0896755 pf=0.92 status=variable vmaxpu=1.5 vminpu=0.6 daily="RU5_SA" 
New "Load.BT_2819400_M1" bus1="UC2819400.2.4" phases=1 conn=Wye model=2 kv=0.220000000 kw = 0.2049725 pf=0.92 status=variable vmaxpu=1.5 vminpu=0.6 daily="RU5_SA"  
New "Load.BT_2819400_M2" bus1="UC2819400.2.4" phases=1 conn=Wye model=3 kv=0.220000000 kw = 0.2049725 pf=0.92 status=variable vmaxpu=1.5 vminpu=0.6 daily="RU5_SA" 
New "Load.BT_2805341_M1" bus1="UC2805341.1.2.4" phases=1 conn=Delta model=2 kv=0.440000000 kw = 0.270094 pf=0.92 status=variable vmaxpu=1.5 vminpu=0.6 daily="RU5_SA"  
New "Load.BT_2805341_M2" bus1="UC2805341.1.2.4" phases=1 conn=Delta model=3 kv=0.440000000 kw = 0.270094 pf=0.92 status=variable vmaxpu=1.5 vminpu=0.6 daily="RU5_SA" 
New "Load.BT_2805345_M1" bus1="UC2805345.1.4" phases=1 conn=Wye model=2 kv=0.220000000 kw = 0.309907 pf=0.92 status=variable vmaxpu=1.5 vminpu=0.6 daily="RU4_SA"  
New "Load.BT_2805345_M2" bus1="UC2805345.1.4" phases=1 conn=Wye model=3 kv=0.220000000 kw = 0.309907 pf=0.92 status=variable vmaxpu=1.5 vminpu=0.6 daily="RU4_SA" 
New "Load.BT_2805244_M1" bus1="UC2805244.1.2.4" phases=1 conn=Delta model=2 kv=0.440000000 kw = 0.053278 pf=0.92 status=variable vmaxpu=1.5 vminpu=0.6 daily="RU1_SA"  
New "Load.BT_2805244_M2" bus1="UC2805244.1.2.4" phases=1 conn=Delta model=3 kv=0.440000000 kw = 0.053278 pf=0.92 status=variable vmaxpu=1.5 vminpu=0.6 daily="RU1_SA" 
New "Load.BT_2805410_M1" bus1="UC2805410.2.4" phases=1 conn=Wye model=2 kv=0.220000000 kw = 0.0070325 pf=0.92 status=variable vmaxpu=1.5 vminpu=0.6 daily="RU1_SA"  
New "Load.BT_2805410_M2" bus1="UC2805410.2.4" phases=1 conn=Wye model=3 kv=0.220000000 kw = 0.0070325 pf=0.92 status=variable vmaxpu=1.5 vminpu=0.6 daily="RU1_SA" 
New "Load.BT_2805776_M1" bus1="UC2805776.2.4" phases=1 conn=Wye model=2 kv=0.220000000 kw = 0.012739 pf=0.92 status=variable vmaxpu=1.5 vminpu=0.6 daily="RU2_SA"  
New "Load.BT_2805776_M2" bus1="UC2805776.2.4" phases=1 conn=Wye model=3 kv=0.220000000 kw = 0.012739 pf=0.92 status=variable vmaxpu=1.5 vminpu=0.6 daily="RU2_SA" 
New "Load.BT_2805421_M1" bus1="UC2805421.1.4" phases=1 conn=Wye model=2 kv=0.219393102 kw = 0.525242 pf=0.92 status=variable vmaxpu=1.5 vminpu=0.6 daily="RU5_SA"  
New "Load.BT_2805421_M2" bus1="UC2805421.1.4" phases=1 conn=Wye model=3 kv=0.219393102 kw = 0.525242 pf=0.92 status=variable vmaxpu=1.5 vminpu=0.6 daily="RU5_SA" 
New "Load.BT_2805426_M1" bus1="UC2805426.1.4" phases=1 conn=Wye model=2 kv=0.219393102 kw = 0.2045945 pf=0.92 status=variable vmaxpu=1.5 vminpu=0.6 daily="RU7_SA"  
New "Load.BT_2805426_M2" bus1="UC2805426.1.4" phases=1 conn=Wye model=3 kv=0.219393102 kw = 0.2045945 pf=0.92 status=variable vmaxpu=1.5 vminpu=0.6 daily="RU7_SA" 
New "Load.BT_2805220_M1" bus1="UC2805220.2.4" phases=1 conn=Wye model=2 kv=0.220000000 kw = 0.2092425 pf=0.92 status=variable vmaxpu=1.5 vminpu=0.6 daily="RU5_SA"  
New "Load.BT_2805220_M2" bus1="UC2805220.2.4" phases=1 conn=Wye model=3 kv=0.220000000 kw = 0.2092425 pf=0.92 status=variable vmaxpu=1.5 vminpu=0.6 daily="RU5_SA" 
New "Load.BT_2805266_M1" bus1="UC2805266.1.2.3.4" phases=3 conn=Delta model=2 kv=0.380000000 kw = 0.456918 pf=0.92 status=variable vmaxpu=1.5 vminpu=0.6 daily="RU5_SA"  
New "Load.BT_2805266_M2" bus1="UC2805266.1.2.3.4" phases=3 conn=Delta model=3 kv=0.380000000 kw = 0.456918 pf=0.92 status=variable vmaxpu=1.5 vminpu=0.6 daily="RU5_SA" 
New "Load.BT_2817049_M1" bus1="UC2817049.3.4" phases=1 conn=Wye model=2 kv=0.219393102 kw = 0.0723395 pf=0.92 status=variable vmaxpu=1.5 vminpu=0.6 daily="RU8_SA"  
New "Load.BT_2817049_M2" bus1="UC2817049.3.4" phases=1 conn=Wye model=3 kv=0.219393102 kw = 0.0723395 pf=0.92 status=variable vmaxpu=1.5 vminpu=0.6 daily="RU8_SA" 
New "Load.BT_2805218_M1" bus1="UC2805218.1.2.4" phases=1 conn=Delta model=2 kv=0.440000000 kw = 0.265099 pf=0.92 status=variable vmaxpu=1.5 vminpu=0.6 daily="RU3_SA"  
New "Load.BT_2805218_M2" bus1="UC2805218.1.2.4" phases=1 conn=Delta model=3 kv=0.440000000 kw = 0.265099 pf=0.92 status=variable vmaxpu=1.5 vminpu=0.6 daily="RU3_SA" 
New "Load.BT_2826225_M1" bus1="UC2826225.1.2.3.4" phases=3 conn=Delta model=2 kv=0.380000000 kw = 0.0328225 pf=0.92 status=variable vmaxpu=1.5 vminpu=0.6 daily="RU7_SA"  
New "Load.BT_2826225_M2" bus1="UC2826225.1.2.3.4" phases=3 conn=Delta model=3 kv=0.380000000 kw = 0.0328225 pf=0.92 status=variable vmaxpu=1.5 vminpu=0.6 daily="RU7_SA" 
New "Load.BT_2817022_M1" bus1="UC2817022.2.4" phases=1 conn=Wye model=2 kv=0.219393102 kw = 0.3156775 pf=0.92 status=variable vmaxpu=1.5 vminpu=0.6 daily="RE6_SA"  
New "Load.BT_2817022_M2" bus1="UC2817022.2.4" phases=1 conn=Wye model=3 kv=0.219393102 kw = 0.3156775 pf=0.92 status=variable vmaxpu=1.5 vminpu=0.6 daily="RE6_SA" 
New "Load.BT_2832901_M1" bus1="UC2832901.1.4" phases=1 conn=Wye model=2 kv=0.220000000 kw = 0.0 pf=0.92 status=variable vmaxpu=1.5 vminpu=0.6 daily="CO6_SA"  
New "Load.BT_2832901_M2" bus1="UC2832901.1.4" phases=1 conn=Wye model=3 kv=0.220000000 kw = 0.0 pf=0.92 status=variable vmaxpu=1.5 vminpu=0.6 daily="CO6_SA" 
New "Load.BT_2838192_M1" bus1="UC2838192.1.4" phases=1 conn=Wye model=2 kv=0.219393102 kw = 0.1744345 pf=0.92 status=variable vmaxpu=1.5 vminpu=0.6 daily="RE5_SA"  
New "Load.BT_2838192_M2" bus1="UC2838192.1.4" phases=1 conn=Wye model=3 kv=0.219393102 kw = 0.1744345 pf=0.92 status=variable vmaxpu=1.5 vminpu=0.6 daily="RE5_SA" 
New "Load.BT_2806076_M1" bus1="UC2806076.2.4" phases=1 conn=Wye model=2 kv=0.220000000 kw = 0.5859605 pf=0.92 status=variable vmaxpu=1.5 vminpu=0.6 daily="RU3_SA"  
New "Load.BT_2806076_M2" bus1="UC2806076.2.4" phases=1 conn=Wye model=3 kv=0.220000000 kw = 0.5859605 pf=0.92 status=variable vmaxpu=1.5 vminpu=0.6 daily="RU3_SA" 
New "Load.BT_2805391_M1" bus1="UC2805391.1.4" phases=1 conn=Wye model=2 kv=0.220000000 kw = 0.011083 pf=0.92 status=variable vmaxpu=1.5 vminpu=0.6 daily="RU1_SA"  
New "Load.BT_2805391_M2" bus1="UC2805391.1.4" phases=1 conn=Wye model=3 kv=0.220000000 kw = 0.011083 pf=0.92 status=variable vmaxpu=1.5 vminpu=0.6 daily="RU1_SA" 
New "Load.BT_2805329_M1" bus1="UC2805329.1.4" phases=1 conn=Wye model=2 kv=0.220000000 kw = 0.3765725 pf=0.92 status=variable vmaxpu=1.5 vminpu=0.6 daily="RU6_SA"  
New "Load.BT_2805329_M2" bus1="UC2805329.1.4" phases=1 conn=Wye model=3 kv=0.220000000 kw = 0.3765725 pf=0.92 status=variable vmaxpu=1.5 vminpu=0.6 daily="RU6_SA" 
New "Load.BT_2834953_M1" bus1="UC2834953.3.4" phases=1 conn=Wye model=2 kv=0.219393102 kw = 0.014515 pf=0.92 status=variable vmaxpu=1.5 vminpu=0.6 daily="RU1_SA"  
New "Load.BT_2834953_M2" bus1="UC2834953.3.4" phases=1 conn=Wye model=3 kv=0.219393102 kw = 0.014515 pf=0.92 status=variable vmaxpu=1.5 vminpu=0.6 daily="RU1_SA" 
New "Load.BT_2831809_M1" bus1="UC2831809.1.2.3.4" phases=3 conn=Delta model=2 kv=0.380000000 kw = 1.01134 pf=0.92 status=variable vmaxpu=1.5 vminpu=0.6 daily="RU8_SA"  
New "Load.BT_2831809_M2" bus1="UC2831809.1.2.3.4" phases=3 conn=Delta model=3 kv=0.380000000 kw = 1.01134 pf=0.92 status=variable vmaxpu=1.5 vminpu=0.6 daily="RU8_SA" 
New "Load.BT_2805792_M1" bus1="UC2805792.1.4" phases=1 conn=Wye model=2 kv=0.219393102 kw = 0.00579 pf=0.92 status=variable vmaxpu=1.5 vminpu=0.6 daily="RU2_SA"  
New "Load.BT_2805792_M2" bus1="UC2805792.1.4" phases=1 conn=Wye model=3 kv=0.219393102 kw = 0.00579 pf=0.92 status=variable vmaxpu=1.5 vminpu=0.6 daily="RU2_SA" 
New "Load.BT_2805230_M1" bus1="UC2805230.2.4" phases=1 conn=Wye model=2 kv=0.220000000 kw = 0.0714155 pf=0.92 status=variable vmaxpu=1.5 vminpu=0.6 daily="RU2_SA"  
New "Load.BT_2805230_M2" bus1="UC2805230.2.4" phases=1 conn=Wye model=3 kv=0.220000000 kw = 0.0714155 pf=0.92 status=variable vmaxpu=1.5 vminpu=0.6 daily="RU2_SA" 
New "Load.BT_2821681_M1" bus1="UC2821681.1.4" phases=1 conn=Wye model=2 kv=0.219393102 kw = 0.312634 pf=0.92 status=variable vmaxpu=1.5 vminpu=0.6 daily="RU3_SA"  
New "Load.BT_2821681_M2" bus1="UC2821681.1.4" phases=1 conn=Wye model=3 kv=0.219393102 kw = 0.312634 pf=0.92 status=variable vmaxpu=1.5 vminpu=0.6 daily="RU3_SA" 
New "Load.BT_2818310_M1" bus1="UC2818310.1.4" phases=1 conn=Wye model=2 kv=0.220000000 kw = 0.293216 pf=0.92 status=variable vmaxpu=1.5 vminpu=0.6 daily="RU7_SA"  
New "Load.BT_2818310_M2" bus1="UC2818310.1.4" phases=1 conn=Wye model=3 kv=0.220000000 kw = 0.293216 pf=0.92 status=variable vmaxpu=1.5 vminpu=0.6 daily="RU7_SA" 
New "Load.BT_2837351_M1" bus1="UC2837351.1.2.3.4" phases=3 conn=Delta model=2 kv=0.380000000 kw = 0.651215 pf=0.92 status=variable vmaxpu=1.5 vminpu=0.6 daily="RU5_SA"  
New "Load.BT_2837351_M2" bus1="UC2837351.1.2.3.4" phases=3 conn=Delta model=3 kv=0.380000000 kw = 0.651215 pf=0.92 status=variable vmaxpu=1.5 vminpu=0.6 daily="RU5_SA" 
New "Load.BT_2828396_M1" bus1="UC2828396.1.4" phases=1 conn=Wye model=2 kv=0.220000000 kw = 0.063695 pf=0.92 status=variable vmaxpu=1.5 vminpu=0.6 daily="RU2_SA"  
New "Load.BT_2828396_M2" bus1="UC2828396.1.4" phases=1 conn=Wye model=3 kv=0.220000000 kw = 0.063695 pf=0.92 status=variable vmaxpu=1.5 vminpu=0.6 daily="RU2_SA" 
New "Load.BT_2825299_M1" bus1="UC2825299.1.4" phases=1 conn=Wye model=2 kv=0.220000000 kw = 0.42411 pf=0.92 status=variable vmaxpu=1.5 vminpu=0.6 daily="RU8_SA"  
New "Load.BT_2825299_M2" bus1="UC2825299.1.4" phases=1 conn=Wye model=3 kv=0.220000000 kw = 0.42411 pf=0.92 status=variable vmaxpu=1.5 vminpu=0.6 daily="RU8_SA" 
New "Load.BT_2819372_M1" bus1="UC2819372.2.4" phases=1 conn=Wye model=2 kv=0.220000000 kw = 0.5929035 pf=0.92 status=variable vmaxpu=1.5 vminpu=0.6 daily="RU8_SA"  
New "Load.BT_2819372_M2" bus1="UC2819372.2.4" phases=1 conn=Wye model=3 kv=0.220000000 kw = 0.5929035 pf=0.92 status=variable vmaxpu=1.5 vminpu=0.6 daily="RU8_SA" 
New "Load.BT_2820643_M1" bus1="UC2820643.2.4" phases=1 conn=Wye model=2 kv=0.220000000 kw = 0.20604 pf=0.92 status=variable vmaxpu=1.5 vminpu=0.6 daily="RU5_SA"  
New "Load.BT_2820643_M2" bus1="UC2820643.2.4" phases=1 conn=Wye model=3 kv=0.220000000 kw = 0.20604 pf=0.92 status=variable vmaxpu=1.5 vminpu=0.6 daily="RU5_SA" 
New "Load.BT_2805351_M1" bus1="UC2805351.1.4" phases=1 conn=Wye model=2 kv=0.220000000 kw = 0.750349 pf=0.92 status=variable vmaxpu=1.5 vminpu=0.6 daily="RU8_SA"  
New "Load.BT_2805351_M2" bus1="UC2805351.1.4" phases=1 conn=Wye model=3 kv=0.220000000 kw = 0.750349 pf=0.92 status=variable vmaxpu=1.5 vminpu=0.6 daily="RU8_SA" 
New "Load.BT_2818334_M1" bus1="UC2818334.1.2.3.4" phases=3 conn=Delta model=2 kv=0.380000000 kw = 0.2844635 pf=0.92 status=variable vmaxpu=1.5 vminpu=0.6 daily="RU7_SA"  
New "Load.BT_2818334_M2" bus1="UC2818334.1.2.3.4" phases=3 conn=Delta model=3 kv=0.380000000 kw = 0.2844635 pf=0.92 status=variable vmaxpu=1.5 vminpu=0.6 daily="RU7_SA" 
New "Load.BT_2819397_M1" bus1="UC2819397.1.4" phases=1 conn=Wye model=2 kv=0.219393102 kw = 0.006709 pf=0.92 status=variable vmaxpu=1.5 vminpu=0.6 daily="RE5_SA"  
New "Load.BT_2819397_M2" bus1="UC2819397.1.4" phases=1 conn=Wye model=3 kv=0.219393102 kw = 0.006709 pf=0.92 status=variable vmaxpu=1.5 vminpu=0.6 daily="RE5_SA" 
New "Load.BT_2818317_M1" bus1="UC2818317.1.2.4" phases=1 conn=Delta model=2 kv=0.440000000 kw = 0.482611 pf=0.92 status=variable vmaxpu=1.5 vminpu=0.6 daily="RU6_SA"  
New "Load.BT_2818317_M2" bus1="UC2818317.1.2.4" phases=1 conn=Delta model=3 kv=0.440000000 kw = 0.482611 pf=0.92 status=variable vmaxpu=1.5 vminpu=0.6 daily="RU6_SA" 
New "Load.BT_2836678_M1" bus1="UC2836678.2.4" phases=1 conn=Wye model=2 kv=0.220000000 kw = 0.2268755 pf=0.92 status=variable vmaxpu=1.5 vminpu=0.6 daily="RU4_SA"  
New "Load.BT_2836678_M2" bus1="UC2836678.2.4" phases=1 conn=Wye model=3 kv=0.220000000 kw = 0.2268755 pf=0.92 status=variable vmaxpu=1.5 vminpu=0.6 daily="RU4_SA" 
New "Load.BT_2805228_M1" bus1="UC2805228.1.4" phases=1 conn=Wye model=2 kv=0.220000000 kw = 0.152482 pf=0.92 status=variable vmaxpu=1.5 vminpu=0.6 daily="RU2_SA"  
New "Load.BT_2805228_M2" bus1="UC2805228.1.4" phases=1 conn=Wye model=3 kv=0.220000000 kw = 0.152482 pf=0.92 status=variable vmaxpu=1.5 vminpu=0.6 daily="RU2_SA" 
New "Load.BT_2805232_M1" bus1="UC2805232.1.2.3.4" phases=3 conn=Delta model=2 kv=0.380000000 kw = 1.5620285 pf=0.92 status=variable vmaxpu=1.5 vminpu=0.6 daily="RU6_SA"  
New "Load.BT_2805232_M2" bus1="UC2805232.1.2.3.4" phases=3 conn=Delta model=3 kv=0.380000000 kw = 1.5620285 pf=0.92 status=variable vmaxpu=1.5 vminpu=0.6 daily="RU6_SA" 
New "Load.BT_2838196_M1" bus1="UC2838196.1.4" phases=1 conn=Wye model=2 kv=0.219393102 kw = 0.104717 pf=0.92 status=variable vmaxpu=1.5 vminpu=0.6 daily="RE4_SA"  
New "Load.BT_2838196_M2" bus1="UC2838196.1.4" phases=1 conn=Wye model=3 kv=0.219393102 kw = 0.104717 pf=0.92 status=variable vmaxpu=1.5 vminpu=0.6 daily="RE4_SA" 
New "Load.BT_2805241_M1" bus1="UC2805241.1.4" phases=1 conn=Wye model=2 kv=0.219393102 kw = 0.3484995 pf=0.92 status=variable vmaxpu=1.5 vminpu=0.6 daily="RU4_SA"  
New "Load.BT_2805241_M2" bus1="UC2805241.1.4" phases=1 conn=Wye model=3 kv=0.219393102 kw = 0.3484995 pf=0.92 status=variable vmaxpu=1.5 vminpu=0.6 daily="RU4_SA" 
New "Load.BT_2818345_M1" bus1="UC2818345.1.4" phases=1 conn=Wye model=2 kv=0.220000000 kw = 0.0374635 pf=0.92 status=variable vmaxpu=1.5 vminpu=0.6 daily="RE1_SA"  
New "Load.BT_2818345_M2" bus1="UC2818345.1.4" phases=1 conn=Wye model=3 kv=0.220000000 kw = 0.0374635 pf=0.92 status=variable vmaxpu=1.5 vminpu=0.6 daily="RE1_SA" 
New "Load.BT_2836301_M1" bus1="UC2836301.1.2.4" phases=1 conn=Delta model=2 kv=0.380000000 kw = 0.235459 pf=0.92 status=variable vmaxpu=1.5 vminpu=0.6 daily="RU8_SA"  
New "Load.BT_2836301_M2" bus1="UC2836301.1.2.4" phases=1 conn=Delta model=3 kv=0.380000000 kw = 0.235459 pf=0.92 status=variable vmaxpu=1.5 vminpu=0.6 daily="RU8_SA" 
New "Load.BT_2805229_M1" bus1="UC2805229.2.4" phases=1 conn=Wye model=2 kv=0.220000000 kw = 0.111949 pf=0.92 status=variable vmaxpu=1.5 vminpu=0.6 daily="RU2_SA"  
New "Load.BT_2805229_M2" bus1="UC2805229.2.4" phases=1 conn=Wye model=3 kv=0.220000000 kw = 0.111949 pf=0.92 status=variable vmaxpu=1.5 vminpu=0.6 daily="RU2_SA" 
New "Load.BT_2805294_M1" bus1="UC2805294.1.2.4" phases=1 conn=Delta model=2 kv=0.440000000 kw = 0.096417 pf=0.92 status=variable vmaxpu=1.5 vminpu=0.6 daily="CO2_SA"  
New "Load.BT_2805294_M2" bus1="UC2805294.1.2.4" phases=1 conn=Delta model=3 kv=0.440000000 kw = 0.096417 pf=0.92 status=variable vmaxpu=1.5 vminpu=0.6 daily="CO2_SA" 
New "Load.BT_2805281_M1" bus1="UC2805281.1.2.4" phases=1 conn=Delta model=2 kv=0.440000000 kw = 0.2950045 pf=0.92 status=variable vmaxpu=1.5 vminpu=0.6 daily="RU6_SA"  
New "Load.BT_2805281_M2" bus1="UC2805281.1.2.4" phases=1 conn=Delta model=3 kv=0.440000000 kw = 0.2950045 pf=0.92 status=variable vmaxpu=1.5 vminpu=0.6 daily="RU6_SA" 
New "Load.BT_2837357_M1" bus1="UC2837357.1.4" phases=1 conn=Wye model=2 kv=0.220000000 kw = 0.0231105 pf=0.92 status=variable vmaxpu=1.5 vminpu=0.6 daily="RU6_SA"  
New "Load.BT_2837357_M2" bus1="UC2837357.1.4" phases=1 conn=Wye model=3 kv=0.220000000 kw = 0.0231105 pf=0.92 status=variable vmaxpu=1.5 vminpu=0.6 daily="RU6_SA" 
New "Load.BT_2805430_M1" bus1="UC2805430.2.4" phases=1 conn=Wye model=2 kv=0.220000000 kw = 0.246756 pf=0.92 status=variable vmaxpu=1.5 vminpu=0.6 daily="RU4_SA"  
New "Load.BT_2805430_M2" bus1="UC2805430.2.4" phases=1 conn=Wye model=3 kv=0.220000000 kw = 0.246756 pf=0.92 status=variable vmaxpu=1.5 vminpu=0.6 daily="RU4_SA" 
New "Load.BT_2825298_M1" bus1="UC2825298.2.4" phases=1 conn=Wye model=2 kv=0.220000000 kw = 0.0900485 pf=0.92 status=variable vmaxpu=1.5 vminpu=0.6 daily="RU4_SA"  
New "Load.BT_2825298_M2" bus1="UC2825298.2.4" phases=1 conn=Wye model=3 kv=0.220000000 kw = 0.0900485 pf=0.92 status=variable vmaxpu=1.5 vminpu=0.6 daily="RU4_SA" 
New "Load.BT_2825849_M1" bus1="UC2825849.1.4" phases=1 conn=Wye model=2 kv=0.219393102 kw = 0.1732215 pf=0.92 status=variable vmaxpu=1.5 vminpu=0.6 daily="RE3_SA"  
New "Load.BT_2825849_M2" bus1="UC2825849.1.4" phases=1 conn=Wye model=3 kv=0.219393102 kw = 0.1732215 pf=0.92 status=variable vmaxpu=1.5 vminpu=0.6 daily="RE3_SA" 
New "Load.BT_2821694_M1" bus1="UC2821694.1.4" phases=1 conn=Wye model=2 kv=0.220000000 kw = 0.999209 pf=0.92 status=variable vmaxpu=1.5 vminpu=0.6 daily="RU6_SA"  
New "Load.BT_2821694_M2" bus1="UC2821694.1.4" phases=1 conn=Wye model=3 kv=0.220000000 kw = 0.999209 pf=0.92 status=variable vmaxpu=1.5 vminpu=0.6 daily="RU6_SA" 
New "Load.BT_2818331_M1" bus1="UC2818331.1.4" phases=1 conn=Wye model=2 kv=0.219393102 kw = 0.1672865 pf=0.92 status=variable vmaxpu=1.5 vminpu=0.6 daily="RU3_SA"  
New "Load.BT_2818331_M2" bus1="UC2818331.1.4" phases=1 conn=Wye model=3 kv=0.219393102 kw = 0.1672865 pf=0.92 status=variable vmaxpu=1.5 vminpu=0.6 daily="RU3_SA" 
New "Load.BT_2825862_M1" bus1="UC2825862.1.2.4" phases=1 conn=Delta model=2 kv=0.440000000 kw = 0.07768 pf=0.92 status=variable vmaxpu=1.5 vminpu=0.6 daily="RU7_SA"  
New "Load.BT_2825862_M2" bus1="UC2825862.1.2.4" phases=1 conn=Delta model=3 kv=0.440000000 kw = 0.07768 pf=0.92 status=variable vmaxpu=1.5 vminpu=0.6 daily="RU7_SA" 
New "Load.BT_2805207_M1" bus1="UC2805207.1.4" phases=1 conn=Wye model=2 kv=0.220000000 kw = 0.1892255 pf=0.92 status=variable vmaxpu=1.5 vminpu=0.6 daily="RU3_SA"  
New "Load.BT_2805207_M2" bus1="UC2805207.1.4" phases=1 conn=Wye model=3 kv=0.220000000 kw = 0.1892255 pf=0.92 status=variable vmaxpu=1.5 vminpu=0.6 daily="RU3_SA" 
New "Load.BT_2805369_M1" bus1="UC2805369.2.4" phases=1 conn=Wye model=2 kv=0.220000000 kw = 0.076048 pf=0.92 status=variable vmaxpu=1.5 vminpu=0.6 daily="RU2_SA"  
New "Load.BT_2805369_M2" bus1="UC2805369.2.4" phases=1 conn=Wye model=3 kv=0.220000000 kw = 0.076048 pf=0.92 status=variable vmaxpu=1.5 vminpu=0.6 daily="RU2_SA" 
New "Load.BT_2805306_M1" bus1="UC2805306.1.2.4" phases=1 conn=Delta model=2 kv=0.440000000 kw = 0.0174405 pf=0.92 status=variable vmaxpu=1.5 vminpu=0.6 daily="RU1_SA"  
New "Load.BT_2805306_M2" bus1="UC2805306.1.2.4" phases=1 conn=Delta model=3 kv=0.440000000 kw = 0.0174405 pf=0.92 status=variable vmaxpu=1.5 vminpu=0.6 daily="RU1_SA" 

New "Load.BT_2836487_M1" bus1="UC2836487.2.4" phases=1 conn=Wye model=2 kv=0.219393102 kw = 0.297399 pf=0.92 status=variable vmaxpu=1.5 vminpu=0.6 daily="RE3_SA"  
New "Load.BT_2836487_M2" bus1="UC2836487.2.4" phases=1 conn=Wye model=3 kv=0.219393102 kw = 0.297399 pf=0.92 status=variable vmaxpu=1.5 vminpu=0.6 daily="RE3_SA" 
New "Load.BT_2805295_M1" bus1="UC2805295.2.4" phases=1 conn=Wye model=2 kv=0.219393102 kw = 0.3153765 pf=0.92 status=variable vmaxpu=1.5 vminpu=0.6 daily="RU3_SA"  
New "Load.BT_2805295_M2" bus1="UC2805295.2.4" phases=1 conn=Wye model=3 kv=0.219393102 kw = 0.3153765 pf=0.92 status=variable vmaxpu=1.5 vminpu=0.6 daily="RU3_SA" 
New "Load.BT_2805260_M1" bus1="UC2805260.1.2.4" phases=1 conn=Delta model=2 kv=0.440000000 kw = 0.1949455 pf=0.92 status=variable vmaxpu=1.5 vminpu=0.6 daily="RU2_SA"  
New "Load.BT_2805260_M2" bus1="UC2805260.1.2.4" phases=1 conn=Delta model=3 kv=0.440000000 kw = 0.1949455 pf=0.92 status=variable vmaxpu=1.5 vminpu=0.6 daily="RU2_SA" 
New "Load.BT_2819368_M1" bus1="UC2819368.1.4" phases=1 conn=Wye model=2 kv=0.220000000 kw = 0.231204 pf=0.92 status=variable vmaxpu=1.5 vminpu=0.6 daily="RU8_SA"  
New "Load.BT_2819368_M2" bus1="UC2819368.1.4" phases=1 conn=Wye model=3 kv=0.220000000 kw = 0.231204 pf=0.92 status=variable vmaxpu=1.5 vminpu=0.6 daily="RU8_SA" 
New "Load.BT_2821699_M1" bus1="UC2821699.1.4" phases=1 conn=Wye model=2 kv=0.220000000 kw = 0.3191465 pf=0.92 status=variable vmaxpu=1.5 vminpu=0.6 daily="RU8_SA"  
New "Load.BT_2821699_M2" bus1="UC2821699.1.4" phases=1 conn=Wye model=3 kv=0.220000000 kw = 0.3191465 pf=0.92 status=variable vmaxpu=1.5 vminpu=0.6 daily="RU8_SA" 
New "Load.BT_2827095_M1" bus1="UC2827095.1.4" phases=1 conn=Wye model=2 kv=0.220000000 kw = 0.2175145 pf=0.92 status=variable vmaxpu=1.5 vminpu=0.6 daily="RU6_SA"  
New "Load.BT_2827095_M2" bus1="UC2827095.1.4" phases=1 conn=Wye model=3 kv=0.220000000 kw = 0.2175145 pf=0.92 status=variable vmaxpu=1.5 vminpu=0.6 daily="RU6_SA" 
New "Load.BT_2805296_M1" bus1="UC2805296.1.4" phases=1 conn=Wye model=2 kv=0.220000000 kw = 0.197639 pf=0.92 status=variable vmaxpu=1.5 vminpu=0.6 daily="RU4_SA"  
New "Load.BT_2805296_M2" bus1="UC2805296.1.4" phases=1 conn=Wye model=3 kv=0.220000000 kw = 0.197639 pf=0.92 status=variable vmaxpu=1.5 vminpu=0.6 daily="RU4_SA" 
New "Load.BT_2831489_M1" bus1="UC2831489.1.4" phases=1 conn=Wye model=2 kv=0.220000000 kw = 0.091084 pf=0.92 status=variable vmaxpu=1.5 vminpu=0.6 daily="RU6_SA"  
New "Load.BT_2831489_M2" bus1="UC2831489.1.4" phases=1 conn=Wye model=3 kv=0.220000000 kw = 0.091084 pf=0.92 status=variable vmaxpu=1.5 vminpu=0.6 daily="RU6_SA" 
New "Load.BT_2805333_M1" bus1="UC2805333.1.4" phases=1 conn=Wye model=2 kv=0.220000000 kw = 0.098438 pf=0.92 status=variable vmaxpu=1.5 vminpu=0.6 daily="RU2_SA"  
New "Load.BT_2805333_M2" bus1="UC2805333.1.4" phases=1 conn=Wye model=3 kv=0.220000000 kw = 0.098438 pf=0.92 status=variable vmaxpu=1.5 vminpu=0.6 daily="RU2_SA" 
New "Load.BT_2805215_M1" bus1="UC2805215.2.4" phases=1 conn=Wye model=2 kv=0.220000000 kw = 1.125022 pf=0.92 status=variable vmaxpu=1.5 vminpu=0.6 daily="RU4_SA"  
New "Load.BT_2805215_M2" bus1="UC2805215.2.4" phases=1 conn=Wye model=3 kv=0.220000000 kw = 1.125022 pf=0.92 status=variable vmaxpu=1.5 vminpu=0.6 daily="RU4_SA" 
New "Load.BT_2838202_M1" bus1="UC2838202.1.4" phases=1 conn=Wye model=2 kv=0.220000000 kw = 0.3473285 pf=0.92 status=variable vmaxpu=1.5 vminpu=0.6 daily="RE4_SA"  
New "Load.BT_2838202_M2" bus1="UC2838202.1.4" phases=1 conn=Wye model=3 kv=0.220000000 kw = 0.3473285 pf=0.92 status=variable vmaxpu=1.5 vminpu=0.6 daily="RE4_SA" 
New "Load.BT_2834960_M1" bus1="UC2834960.1.2.3.4" phases=3 conn=Delta model=2 kv=0.380000000 kw = 0.5882285 pf=0.92 status=variable vmaxpu=1.5 vminpu=0.6 daily="RU5_SA"  
New "Load.BT_2834960_M2" bus1="UC2834960.1.2.3.4" phases=3 conn=Delta model=3 kv=0.380000000 kw = 0.5882285 pf=0.92 status=variable vmaxpu=1.5 vminpu=0.6 daily="RU5_SA" 
New "Load.BT_2817019_M1" bus1="UC2817019.2.4" phases=1 conn=Wye model=2 kv=0.220000000 kw = 0.4303615 pf=0.92 status=variable vmaxpu=1.5 vminpu=0.6 daily="RU4_SA"  
New "Load.BT_2817019_M2" bus1="UC2817019.2.4" phases=1 conn=Wye model=3 kv=0.220000000 kw = 0.4303615 pf=0.92 status=variable vmaxpu=1.5 vminpu=0.6 daily="RU4_SA" 
New "Load.BT_2836306_M1" bus1="UC2836306.1.4" phases=1 conn=Wye model=2 kv=0.220000000 kw = 0.2754315 pf=0.92 status=variable vmaxpu=1.5 vminpu=0.6 daily="RU5_SA"  
New "Load.BT_2836306_M2" bus1="UC2836306.1.4" phases=1 conn=Wye model=3 kv=0.220000000 kw = 0.2754315 pf=0.92 status=variable vmaxpu=1.5 vminpu=0.6 daily="RU5_SA" 
New "Load.BT_2805205_M1" bus1="UC2805205.1.4" phases=1 conn=Wye model=2 kv=0.220000000 kw = 0.0845405 pf=0.92 status=variable vmaxpu=1.5 vminpu=0.6 daily="RU2_SA"  
New "Load.BT_2805205_M2" bus1="UC2805205.1.4" phases=1 conn=Wye model=3 kv=0.220000000 kw = 0.0845405 pf=0.92 status=variable vmaxpu=1.5 vminpu=0.6 daily="RU2_SA" 
New "Load.BT_2833916_M1" bus1="UC2833916.1.4" phases=1 conn=Wye model=2 kv=0.220000000 kw = 0.1178735 pf=0.92 status=variable vmaxpu=1.5 vminpu=0.6 daily="RE1_SA"  
New "Load.BT_2833916_M2" bus1="UC2833916.1.4" phases=1 conn=Wye model=3 kv=0.220000000 kw = 0.1178735 pf=0.92 status=variable vmaxpu=1.5 vminpu=0.6 daily="RE1_SA" 
New "Load.BT_2805208_M1" bus1="UC2805208.2.4" phases=1 conn=Wye model=2 kv=0.220000000 kw = 0.0675555 pf=0.92 status=variable vmaxpu=1.5 vminpu=0.6 daily="RU2_SA"  
New "Load.BT_2805208_M2" bus1="UC2805208.2.4" phases=1 conn=Wye model=3 kv=0.220000000 kw = 0.0675555 pf=0.92 status=variable vmaxpu=1.5 vminpu=0.6 daily="RU2_SA" 
New "Load.BT_2805360_M1" bus1="UC2805360.1.4" phases=1 conn=Wye model=2 kv=0.220000000 kw = 0.171878 pf=0.92 status=variable vmaxpu=1.5 vminpu=0.6 daily="RU5_SA"  
New "Load.BT_2805360_M2" bus1="UC2805360.1.4" phases=1 conn=Wye model=3 kv=0.220000000 kw = 0.171878 pf=0.92 status=variable vmaxpu=1.5 vminpu=0.6 daily="RU5_SA" 