New "Line.SBT_34982" phases=3 bus1="BT806811.1.2.4" bus2="BT110151.1.2.4" linecode="44_3" length=0.083090000 units=km
New "Line.SBT_34925" phases=2 bus1="BT806581.1.4" bus2="BT38831.1.4" linecode="60_2" length=0.076530000 units=km
New "Line.SBT_34926" phases=2 bus1="BT806591.1.4" bus2="BT806581.1.4" linecode="60_2" length=0.124040000 units=km
New "Line.SBT_34927" phases=2 bus1="BT806561.1.4" bus2="BT806591.1.4" linecode="60_2" length=0.188160000 units=km
New "Line.SBT_34769" phases=2 bus1="BT3021.2.4" bus2="BT805571.2.4" linecode="60_2" length=0.062240000 units=km
New "Line.SBT_34770" phases=2 bus1="BT3031.2.4" bus2="BT805571.2.4" linecode="60_2" length=0.123140000 units=km
New "Line.SBT_34773" phases=2 bus1="BT805571.2.4" bus2="ET28_6256.2.4" linecode="62_2" length=0.051110000 units=km
New "Line.SBT_34763" phases=3 bus1="BT31511.1.2.4" bus2="BT805441.1.2.4" linecode="44_3" length=0.042750000 units=km
New "Line.SBT_34764" phases=3 bus1="BT805441.1.2.4" bus2="ET28_4047.1.2.4" linecode="44_3" length=0.039180000 units=km
New "Line.SBT_34765" phases=2 bus1="BT805451.1.4" bus2="BT31511.1.4" linecode="62_2" length=0.067630000 units=km
New "Line.SBT_34706" phases=3 bus1="BT59481.1.2.4" bus2="BT59502.1.2.4" linecode="44_3" length=0.095660000 units=km
New "Line.SBT_34707" phases=3 bus1="BT59502.1.2.4" bus2="BT804551.1.2.4" linecode="44_3" length=0.102700000 units=km
New "Line.SBT_34708" phases=3 bus1="BT804551.1.2.4" bus2="BT74621.1.2.4" linecode="44_3" length=0.058660000 units=km
New "Line.SBT_34168" phases=3 bus1="BT797871.1.2.4" bus2="ET28_6194.1.2.4" linecode="59_3" length=0.071490000 units=km
New "Line.SBT_34169" phases=3 bus1="BT797881.1.2.4" bus2="BT797871.1.2.4" linecode="59_3" length=0.035640000 units=km
New "Line.SBT_33829" phases=2 bus1="BT60391.1.4" bus2="BT636111.1.4" linecode="62_2" length=0.099860000 units=km
New "Line.SBT_33830" phases=3 bus1="BT60392.1.2.4" bus2="BT60381.1.2.4" linecode="44_3" length=0.072120000 units=km
New "Line.SBT_33831" phases=2 bus1="BT636111.1.4" bus2="BT795201.1.4" linecode="62_2" length=0.094340000 units=km
New "Line.SBT_33832" phases=2 bus1="BT795201.1.4" bus2="ET28_6155.1.4" linecode="62_2" length=0.034820000 units=km
New "Line.SBT_33659" phases=4 bus1="BT793451.1.2.3.4" bus2="ET28_6095.1.2.3.4" linecode="74_4" length=0.054040000 units=km
New "Line.SBT_33637" phases=4 bus1="BT793221.1.2.3.4" bus2="ET28_6018.1.2.3.4" linecode="74_4" length=0.035930000 units=km
New "Line.SBT_33323" phases=3 bus1="BT42911.1.2.4" bus2="ET28_6069.1.2.4" linecode="44_3" length=0.083190000 units=km
New "Line.SBT_33325" phases=3 bus1="BT42932.1.2.4" bus2="ET28_6069.1.2.4" linecode="44_3" length=0.089110000 units=km
New "Line.SBT_33326" phases=2 bus1="BT440681.1.4" bus2="BT42932.1.4" linecode="60_2" length=0.116380000 units=km
New "Line.SBT_33268" phases=2 bus1="BT790251.1.4" bus2="ET28_5757.1.4" linecode="62_2" length=0.075120000 units=km
New "Line.SBT_33081" phases=3 bus1="BT47191.1.2.4" bus2="BT47201.1.2.4" linecode="44_3" length=0.090640000 units=km

New "Line.SBT_32312" phases=3 bus1="BT652841.1.2.4" bus2="BT685271.1.2.4" linecode="59_3" length=0.097130000 units=km
New "Line.SBT_31968" phases=3 bus1="BT774141.1.2.4" bus2="BT736161.1.2.4" linecode="59_3" length=0.063670000 units=km
New "Line.SBT_31974" phases=2 bus1="BT774201.1.4" bus2="ET28_5756.1.4" linecode="62_2" length=0.075580000 units=km
New "Line.SBT_31144" phases=4 bus1="BT60852.1.2.3.4" bus2="ET28_1990.1.2.3.4" linecode="74_4" length=0.053150000 units=km
New "Line.SBT_30827" phases=3 bus1="BT47882.1.2.4" bus2="ET28_1993.1.2.4" linecode="76_3" length=0.062300000 units=km
New "Line.SBT_11502" phases=3 bus1="BT43841.1.2.4" bus2="BT43831.1.2.4" linecode="44_3" length=0.076030000 units=km
New "Line.SBT_14551" phases=4 bus1="BT493021.1.2.3.4" bus2="ET28_3960.1.2.3.4" linecode="75_4" length=0.029530000 units=km
New "Line.SBT_29893" phases=4 bus1="BT756031.1.2.3.4" bus2="ET28_5398.1.2.3.4" linecode="97_4" length=0.047650000 units=km
New "Line.SBT_29608" phases=4 bus1="BT753801.1.2.3.4" bus2="ET28_5168.1.2.3.4" linecode="74_4" length=0.031220000 units=km
New "Line.SBT_29609" phases=4 bus1="BT753811.1.2.3.4" bus2="BT753801.1.2.3.4" linecode="74_4" length=0.047830000 units=km
New "Line.SBT_29610" phases=4 bus1="BT753821.1.2.3.4" bus2="BT753811.1.2.3.4" linecode="74_4" length=0.051000000 units=km
New "Line.SBT_29611" phases=2 bus1="BT59371.1.4" bus2="BT753801.1.4" linecode="60_2" length=0.050520000 units=km
New "Line.SBT_29614" phases=4 bus1="BT753901.1.2.3.4" bus2="BT28051.1.2.3.4" linecode="97_4" length=0.081580000 units=km
New "Line.SBT_29613" phases=4 bus1="BT753881.1.2.3.4" bus2="ET28_2706.1.2.3.4" linecode="97_4" length=0.060240000 units=km
New "Line.SBT_11593" phases=3 bus1="BT135761.1.2.4" bus2="ET28_1173.1.2.4" linecode="44_3" length=0.054940000 units=km
New "Line.SBT_29548" phases=3 bus1="BT135791.1.2.4" bus2="BT752461.1.2.4" linecode="44_3" length=0.065100000 units=km
New "Line.SBT_29550" phases=4 bus1="BT752481.1.2.3.4" bus2="ET28_5616.1.2.3.4" linecode="74_4" length=0.035910000 units=km
New "Line.SBT_29551" phases=4 bus1="BT752491.1.2.3.4" bus2="BT752481.1.2.3.4" linecode="74_4" length=0.038070000 units=km
New "Line.SBT_26271" phases=2 bus1="BT606871.2.4" bus2="ET28_3397.2.4" linecode="62_2" length=0.073030000 units=km
New "Line.SBT_27327" phases=3 bus1="BT628321.1.2.4" bus2="ET28_3047.1.2.4" linecode="44_3" length=0.080130000 units=km
New "Line.SBT_27350" phases=3 bus1="BT664021.1.2.4" bus2="ET28_4544.1.2.4" linecode="59_3" length=0.108370000 units=km
New "Line.SBT_24928" phases=4 bus1="BT60841.1.2.3.4" bus2="BT363381.1.2.3.4" linecode="58_4" length=0.018520000 units=km
New "Line.SBT_18185" phases=3 bus1="BT12991.1.2.4" bus2="BT13021.1.2.4" linecode="44_3" length=0.065760000 units=km
New "Line.SBT_18016" phases=2 bus1="BT13041.1.4" bus2="ET28_700.1.4" linecode="67_2" length=0.085290000 units=km
New "Line.SBT_18025" phases=2 bus1="BT690151.1.4" bus2="BT392751.1.4" linecode="62_2" length=0.136540000 units=km
New "Line.SBT_16441" phases=3 bus1="BT340741.1.2.4" bus2="ET28_4444.1.2.4" linecode="76_3" length=0.071000000 units=km
New "Line.SBT_15540" phases=2 bus1="BT135701.1.4" bus2="ET28_5100.1.4" linecode="60_2" length=0.105100000 units=km
New "Line.SBT_15582" phases=2 bus1="BT664001.1.4" bus2="BT649241.1.4" linecode="60_2" length=0.032020000 units=km
New "Line.SBT_15227" phases=4 bus1="BT497151.1.2.3.4" bus2="BT497161.1.2.3.4" linecode="75_4" length=0.030000000 units=km
New "Line.SBT_14734" phases=3 bus1="BT685271.1.2.4" bus2="ET28_2805.1.2.4" linecode="59_3" length=0.088090000 units=km
New "Line.SBT_14399" phases=2 bus1="BT563641.1.4" bus2="BT563631.1.4" linecode="62_2" length=0.089000000 units=km
New "Line.SBT_12099" phases=4 bus1="BT330861.1.2.3.4" bus2="BT330851.1.2.3.4" linecode="75_4" length=0.016400000 units=km
New "Line.SBT_12480" phases=4 bus1="BT28051.1.2.3.4" bus2="BT753881.1.2.3.4" linecode="97_4" length=0.144800000 units=km
New "Line.SBT_11782" phases=3 bus1="BT328731.1.2.4" bus2="BT328721.1.2.4" linecode="44_3" length=0.077880000 units=km
New "Line.SBT_11250" phases=4 bus1="BT363381.1.2.3.4" bus2="ET28_1990.1.2.3.4" linecode="58_4" length=0.023220000 units=km
New "Line.SBT_11473" phases=3 bus1="BT47011.1.2.4" bus2="BT47001.1.2.4" linecode="44_3" length=0.093650000 units=km
New "Line.SBT_11595" phases=3 bus1="BT752461.1.2.4" bus2="BT135761.1.2.4" linecode="44_3" length=0.037960000 units=km
New "Line.SBT_10984" phases=3 bus1="BT108541.1.2.4" bus2="BT108531.1.2.4" linecode="44_3" length=0.282580000 units=km
New "Line.SBT_11027" phases=4 bus1="BT513221.1.2.3.4" bus2="BT513211.1.2.3.4" linecode="16_4" length=0.031760000 units=km
New "Line.SBT_11159" phases=3 bus1="BT54631.1.2.4" bus2="ET28_778.1.2.4" linecode="44_3" length=0.056220000 units=km
New "Line.SBT_11167" phases=3 bus1="BT142391.1.2.4" bus2="BT142411.1.2.4" linecode="80_3" length=0.122490000 units=km
New "Line.SBT_10438" phases=3 bus1="BT21181.1.2.4" bus2="ET28_654.1.2.4" linecode="76_3" length=0.097700000 units=km
New "Line.SBT_10450" phases=2 bus1="BT17091.1.4" bus2="BT17081.1.4" linecode="60_2" length=0.046570000 units=km
New "Line.SBT_10085" phases=3 bus1="BT34021.1.2.4" bus2="BT34031.1.2.4" linecode="91_3" length=0.081340000 units=km
New "Line.SBT_29050" phases=2 bus1="BT54601.1.4" bus2="BT54591.1.4" linecode="60_2" length=0.092180000 units=km
New "Line.SBT_28895" phases=4 bus1="BT60831.1.2.3.4" bus2="BT60841.1.2.3.4" linecode="58_4" length=0.026240000 units=km
New "Line.SBT_28902" phases=3 bus1="BT628301.1.2.4" bus2="ET28_3047.1.2.4" linecode="44_3" length=0.077820000 units=km
New "Line.SBT_28875" phases=3 bus1="BT595521.1.2.4" bus2="ET28_2304.1.2.4" linecode="44_3" length=0.120830000 units=km
New "Line.SBT_28722" phases=3 bus1="BT109181.1.2.4" bus2="BT109171.1.2.4" linecode="76_3" length=0.089690000 units=km
New "Line.SBT_28673" phases=2 bus1="BT38781.1.4" bus2="BT38771.1.4" linecode="60_2" length=0.131030000 units=km
New "Line.SBT_28605" phases=3 bus1="BT142251.1.2.4" bus2="ET28_5258.1.2.4" linecode="59_3" length=0.033840000 units=km
New "Line.SBT_28506" phases=3 bus1="BT736161.1.2.4" bus2="BT736151.1.2.4" linecode="44_3" length=0.067000000 units=km
New "Line.SBT_28455" phases=2 bus1="BT731651.2.4" bus2="ET28_5100.2.4" linecode="60_2" length=0.081300000 units=km
New "Line.SBT_28460" phases=2 bus1="BT732571.1.4" bus2="BT510451.1.4" linecode="70_2" length=0.057320000 units=km
New "Line.SBT_28461" phases=2 bus1="BT732621.1.4" bus2="BT60371.1.4" linecode="60_2" length=0.078160000 units=km
New "Line.SBT_28414" phases=4 bus1="BT689851.1.2.3.4" bus2="ET28_5513.1.2.3.4" linecode="74_4" length=0.055040000 units=km
New "Line.SBT_28097" phases=2 bus1="BT724321.1.4" bus2="ET28_4805.1.4" linecode="62_2" length=0.189990000 units=km
New "Line.SBT_27842" phases=3 bus1="BT668121.1.2.4" bus2="ET28_4506.1.2.4" linecode="59_3" length=0.065800000 units=km
New "Line.SBT_27798" phases=3 bus1="BT117781.1.2.4" bus2="ET28_4444.1.2.4" linecode="76_3" length=0.059000000 units=km
New "Line.SBT_27799" phases=3 bus1="BT340731.1.2.4" bus2="BT340721.1.2.4" linecode="44_3" length=0.091000000 units=km
New "Line.SBT_27665" phases=2 bus1="BT43791.1.4" bus2="BT43801.1.4" linecode="62_2" length=0.082620000 units=km
New "Line.SBT_27678" phases=3 bus1="BT201821.1.2.4" bus2="ET28_1932.1.2.4" linecode="76_3" length=0.055010000 units=km
New "Line.SBT_27559" phases=3 bus1="BT719531.1.2.4" bus2="BT719521.1.2.4" linecode="44_3" length=0.048170000 units=km
New "Line.SBT_27348" phases=3 bus1="BT47952.1.2.4" bus2="ET28_4271.1.2.4" linecode="59_3" length=0.081880000 units=km
New "Line.SBT_27349" phases=2 bus1="BT53541.1.4" bus2="BT53531.1.4" linecode="62_2" length=0.189620000 units=km
New "Line.SBT_27351" phases=3 bus1="BT664101.1.2.4" bus2="BT27981.1.2.4" linecode="76_3" length=0.078610000 units=km
New "Line.SBT_27316" phases=3 bus1="BT593901.1.2.4" bus2="BT417991.1.2.4" linecode="44_3" length=0.047540000 units=km
New "Line.SBT_27317" phases=2 bus1="BT649241.1.4" bus2="BT649231.1.4" linecode="60_2" length=0.036800000 units=km
New "Line.SBT_27318" phases=2 bus1="BT21281.1.4" bus2="ET28_4270.1.4" linecode="60_2" length=0.124330000 units=km
New "Line.SBT_27124" phases=4 bus1="BT60851.1.2.3.4" bus2="BT497151.1.2.3.4" linecode="75_4" length=0.049160000 units=km
New "Line.SBT_27125" phases=4 bus1="BT506831.1.2.3.4" bus2="BT506561.1.2.3.4" linecode="75_4" length=0.042000000 units=km
New "Line.SBT_27122" phases=3 bus1="BT497071.1.2.4" bus2="ET28_3311.1.2.4" linecode="71_3" length=0.042620000 units=km
New "Line.SBT_27123" phases=2 bus1="BT497101.1.4" bus2="BT497091.1.4" linecode="69_2" length=0.089000000 units=km
New "Line.SBT_26851" phases=2 bus1="BT53711.1.4" bus2="ET28_4042.1.4" linecode="62_2" length=0.046570000 units=km
New "Line.SBT_26644" phases=3 bus1="BT563601.1.2.4" bus2="BT43041.1.2.4" linecode="59_3" length=0.091440000 units=km

New "Line.SBT_26356" phases=3 bus1="BT628311.1.2.4" bus2="BT628301.1.2.4" linecode="44_3" length=0.050120000 units=km
New "Line.SBT_26360" phases=2 bus1="BT604481.1.4" bus2="BT60521.1.4" linecode="62_2" length=0.068000000 units=km
New "Line.SBT_26011" phases=2 bus1="BT583051.1.4" bus2="BT364541.1.4" linecode="62_2" length=0.060080000 units=km
New "Line.SBT_25910" phases=3 bus1="BT59341.1.2.4" bus2="ET28_636.1.2.4" linecode="59_3" length=0.073820000 units=km
New "Line.SBT_25726" phases=2 bus1="BT21.1.4" bus2="BT11.1.4" linecode="60_2" length=0.107620000 units=km
New "Line.SBT_25640" phases=3 bus1="BT11.1.2.4" bus2="ET28_633.1.2.4" linecode="44_3" length=0.090050000 units=km
New "Line.SBT_25645" phases=3 bus1="BT60511.1.2.4" bus2="ET28_634.1.2.4" linecode="44_3" length=0.072920000 units=km
New "Line.SBT_25646" phases=3 bus1="BT60531.1.2.4" bus2="BT737841.1.2.4" linecode="44_3" length=0.076420000 units=km
New "Line.SBT_25609" phases=2 bus1="BT53731.1.4" bus2="BT47211.1.4" linecode="60_2" length=0.090350000 units=km
New "Line.SBT_25610" phases=4 bus1="BT330851.1.2.3.4" bus2="BT493021.1.2.3.4" linecode="75_4" length=0.036120000 units=km
New "Line.SBT_25614" phases=2 bus1="BT3051.2.4" bus2="BT3041.2.4" linecode="60_2" length=0.076160000 units=km
New "Line.SBT_25632" phases=2 bus1="BT42791.1.4" bus2="BT325711.1.4" linecode="60_2" length=0.081010000 units=km
New "Line.SBT_25599" phases=3 bus1="BT15271.1.2.4" bus2="BT15261.1.2.4" linecode="44_3" length=0.099130000 units=km
New "Line.SBT_25607" phases=3 bus1="BT326631.1.2.4" bus2="ET28_2790.1.2.4" linecode="59_3" length=0.056320000 units=km
New "Line.SBT_25608" phases=2 bus1="BT47211.1.4" bus2="ET28_2791.1.4" linecode="60_2" length=0.092440000 units=km
New "Line.SBT_25535" phases=2 bus1="BT378171.2.4" bus2="ET28_2805.2.4" linecode="60_2" length=0.215060000 units=km
New "Line.SBT_25514" phases=3 bus1="BT14421.1.2.4" bus2="ET28_635.1.2.4" linecode="91_3" length=0.096840000 units=km
New "Line.SBT_25515" phases=3 bus1="BT14381.1.2.4" bus2="ET28_635.1.2.4" linecode="44_3" length=0.103100000 units=km
New "Line.SBT_25531" phases=3 bus1="BT27991.1.2.4" bus2="BT664101.1.2.4" linecode="76_3" length=0.076160000 units=km
New "Line.SBT_25508" phases=2 bus1="BT148121.2.4" bus2="BT109941.2.4" linecode="60_2" length=0.068120000 units=km
New "Line.SBT_25445" phases=3 bus1="BT14411.1.2.4" bus2="BT14391.1.2.4" linecode="44_3" length=0.068680000 units=km
New "Line.SBT_25425" phases=3 bus1="BT14391.1.2.4" bus2="BT14381.1.2.4" linecode="44_3" length=0.116560000 units=km
New "Line.SBT_25426" phases=3 bus1="BT14451.1.2.4" bus2="BT14441.1.2.4" linecode="91_3" length=0.115110000 units=km
New "Line.SBT_25434" phases=2 bus1="BT13111.2.4" bus2="BT13091.2.4" linecode="60_2" length=0.126830000 units=km
New "Line.SBT_25435" phases=3 bus1="BT42941.1.2.4" bus2="ET28_2316.1.2.4" linecode="44_3" length=0.079080000 units=km
New "Line.SBT_25399" phases=2 bus1="BT142291.2.4" bus2="BT142281.2.4" linecode="60_2" length=0.086980000 units=km
New "Line.SBT_25400" phases=4 bus1="BT330871.1.2.3.4" bus2="BT330861.1.2.3.4" linecode="75_4" length=0.021400000 units=km
New "Line.SBT_25401" phases=3 bus1="BT110091.1.2.4" bus2="ET28_2303.1.2.4" linecode="44_3" length=0.129140000 units=km
New "Line.SBT_25409" phases=3 bus1="BT13101.1.2.4" bus2="BT13091.1.2.4" linecode="44_3" length=0.060020000 units=km
New "Line.SBT_25414" phases=2 bus1="BT110021.1.4" bus2="BT110011.1.4" linecode="60_2" length=0.310130000 units=km
New "Line.SBT_25417" phases=2 bus1="BT27461.1.4" bus2="BT1821.1.4" linecode="60_2" length=0.104810000 units=km
New "Line.SBT_25421" phases=2 bus1="BT110081.1.4" bus2="ET28_2303.1.4" linecode="60_2" length=0.033240000 units=km

New "Line.SBT_25391" phases=2 bus1="BT142341.2.4" bus2="BT142331.2.4" linecode="60_2" length=0.102040000 units=km
New "Line.SBT_25392" phases=2 bus1="BT425931.2.4" bus2="BT142351.2.4" linecode="60_2" length=0.067190000 units=km
New "Line.SBT_25393" phases=2 bus1="BT142261.2.4" bus2="BT142251.2.4" linecode="60_2" length=0.021100000 units=km
New "Line.SBT_25394" phases=3 bus1="BT134821.1.2.4" bus2="ET28_2247.1.2.4" linecode="44_3" length=0.131490000 units=km
New "Line.SBT_25332" phases=3 bus1="BT14351.1.2.4" bus2="BT14361.1.2.4" linecode="44_3" length=0.082280000 units=km
New "Line.SBT_25325" phases=2 bus1="BT303891.2.4" bus2="BT31591.2.4" linecode="62_2" length=0.160420000 units=km
New "Line.SBT_25256" phases=3 bus1="BT109141.1.2.4" bus2="BT109151.1.2.4" linecode="76_3" length=0.082150000 units=km
New "Line.SBT_25258" phases=2 bus1="BT110182.1.4" bus2="BT110191.1.4" linecode="60_2" length=0.085590000 units=km
New "Line.SBT_25260" phases=2 bus1="BT21282.1.4" bus2="BT21301.1.4" linecode="60_2" length=0.117140000 units=km
New "Line.SBT_25261" phases=3 bus1="BT53681.1.2.4" bus2="ET28_628.1.2.4" linecode="80_3" length=0.081390000 units=km

New "Line.SBT_25240" phases=2 bus1="BT13051.1.4" bus2="BT13041.1.4" linecode="67_2" length=0.106230000 units=km
New "Line.SBT_25217" phases=3 bus1="BT56481.1.2.4" bus2="ET28_1829.1.2.4" linecode="44_3" length=0.186130000 units=km
New "Line.SBT_25218" phases=3 bus1="BT328721.1.2.4" bus2="BT328711.1.2.4" linecode="44_3" length=0.071340000 units=km
New "Line.SBT_25219" phases=3 bus1="BT109151.1.2.4" bus2="ET28_1932.1.2.4" linecode="76_3" length=0.064200000 units=km
New "Line.SBT_25128" phases=3 bus1="BT360861.1.2.4" bus2="ET28_700.1.2.4" linecode="80_3" length=0.026000000 units=km
New "Line.SBT_25138" phases=2 bus1="BT359371.1.4" bus2="BT38651.1.4" linecode="60_2" length=0.047680000 units=km
New "Line.SBT_25139" phases=3 bus1="BT12381.1.2.4" bus2="ET28_701.1.2.4" linecode="44_3" length=0.080650000 units=km
New "Line.SBT_25140" phases=3 bus1="BT12361.1.2.4" bus2="ET28_701.1.2.4" linecode="44_3" length=0.114490000 units=km
New "Line.SBT_25141" phases=3 bus1="BT38831.1.2.4" bus2="BT12361.1.2.4" linecode="44_3" length=0.079060000 units=km
New "Line.SBT_25097" phases=3 bus1="BT60361.1.2.4" bus2="ET28_1751.1.2.4" linecode="44_3" length=0.095880000 units=km
New "Line.SBT_25101" phases=3 bus1="BT43741.1.2.4" bus2="BT43041.1.2.4" linecode="59_3" length=0.093090000 units=km
New "Line.SBT_25102" phases=2 bus1="BT326271.1.4" bus2="BT3091.1.4" linecode="60_2" length=0.079620000 units=km
New "Line.SBT_25106" phases=3 bus1="BT134841.1.2.4" bus2="BT134832.1.2.4" linecode="76_3" length=0.088960000 units=km
New "Line.SBT_25107" phases=3 bus1="BT135591.1.2.4" bus2="BT135601.1.2.4" linecode="76_3" length=0.087660000 units=km
New "Line.SBT_25113" phases=2 bus1="BT72531.1.4" bus2="BT72521.1.4" linecode="60_2" length=0.105760000 units=km
New "Line.SBT_25117" phases=2 bus1="BT55601.2.4" bus2="ET28_1044.2.4" linecode="60_2" length=0.119850000 units=km
New "Line.SBT_25118" phases=2 bus1="BT320181.2.4" bus2="ET28_1044.2.4" linecode="62_2" length=0.280070000 units=km
New "Line.SBT_25077" phases=2 bus1="BT54671.1.4" bus2="BT54661.1.4" linecode="60_2" length=0.120270000 units=km
New "Line.SBT_25080" phases=2 bus1="BT27921.1.4" bus2="BT27291.1.4" linecode="60_2" length=0.056040000 units=km
New "Line.SBT_25081" phases=4 bus1="BT15181.1.2.3.4" bus2="ET28_626.1.2.3.4" linecode="92_4" length=0.037440000 units=km
New "Line.SBT_25082" phases=4 bus1="BT15141.1.2.3.4" bus2="BT15181.1.2.3.4" linecode="92_4" length=0.041050000 units=km
New "Line.SBT_25083" phases=4 bus1="BT15151.1.2.3.4" bus2="BT15141.1.2.3.4" linecode="92_4" length=0.070600000 units=km
New "Line.SBT_25084" phases=2 bus1="BT373991.2.4" bus2="BT373981.2.4" linecode="60_2" length=0.085930000 units=km
New "Line.SBT_25091" phases=2 bus1="BT2961.1.4" bus2="BT2951.1.4" linecode="60_2" length=0.076490000 units=km
New "Line.SBT_25096" phases=3 bus1="BT881.1.2.4" bus2="ET28_1751.1.2.4" linecode="44_3" length=0.119000000 units=km
New "Line.SBT_25047" phases=3 bus1="BT47001.1.2.4" bus2="ET28_640.1.2.4" linecode="44_3" length=0.072690000 units=km
New "Line.SBT_25061" phases=4 bus1="BT451791.1.2.3.4" bus2="BT325631.1.2.3.4" linecode="16_4" length=0.039960000 units=km
New "Line.SBT_25064" phases=3 bus1="BT2941.1.2.4" bus2="ET28_630.1.2.4" linecode="44_3" length=0.063410000 units=km
New "Line.SBT_25065" phases=3 bus1="BT2951.1.2.4" bus2="BT2941.1.2.4" linecode="44_3" length=0.078640000 units=km
New "Line.SBT_25019" phases=4 bus1="BT134761.1.2.3.4" bus2="ET28_694.1.2.3.4" linecode="75_4" length=0.053760000 units=km
New "Line.SBT_25024" phases=3 bus1="BT135702.1.2.4" bus2="BT135691.1.2.4" linecode="76_3" length=0.084600000 units=km
New "Line.SBT_25037" phases=2 bus1="BT60921.1.4" bus2="BT60911.1.4" linecode="60_2" length=0.139090000 units=km
New "Line.SBT_25038" phases=4 bus1="BT60891.1.2.3.4" bus2="ET28_5257.1.2.3.4" linecode="97_4" length=0.061200000 units=km
New "Line.SBT_24995" phases=4 bus1="BT134741.1.2.3.4" bus2="BT134751.1.2.3.4" linecode="75_4" length=0.065170000 units=km
New "Line.SBT_25001" phases=2 bus1="BT349691.1.4" bus2="BT135711.1.4" linecode="60_2" length=0.056800000 units=km
New "Line.SBT_25008" phases=4 bus1="BT15201.1.2.3.4" bus2="ET28_626.1.2.3.4" linecode="45_4" length=0.076280000 units=km
New "Line.SBT_24971" phases=2 bus1="BT2972.1.4" bus2="ET28_4628.1.4" linecode="60_2" length=0.116900000 units=km

New "Line.SBT_24927" phases=2 bus1="BT54501.1.4" bus2="ET2_1955.1.4" linecode="60_2" length=0.165080000 units=km
New "Line.SBT_24940" phases=4 bus1="BT15171.1.2.3.4" bus2="BT15161.1.2.3.4" linecode="92_4" length=0.093450000 units=km
New "Line.SBT_24888" phases=3 bus1="BT340711.1.2.4" bus2="ET28_2000.1.2.4" linecode="44_3" length=0.226340000 units=km
New "Line.SBT_24869" phases=3 bus1="BT329921.1.2.4" bus2="BT47911.1.2.4" linecode="76_3" length=0.116760000 units=km
New "Line.SBT_24877" phases=2 bus1="BT11141.1.4" bus2="ET2_1997.1.4" linecode="60_2" length=0.100240000 units=km
New "Line.SBT_24878" phases=3 bus1="BT108521.1.2.4" bus2="ET28_1998.1.2.4" linecode="80_3" length=0.077790000 units=km
New "Line.SBT_24879" phases=3 bus1="BT108531.1.2.4" bus2="BT108521.1.2.4" linecode="44_3" length=0.041440000 units=km
New "Line.SBT_24840" phases=3 bus1="BT47911.1.2.4" bus2="ET28_1993.1.2.4" linecode="76_3" length=0.044940000 units=km
New "Line.SBT_24847" phases=4 bus1="BT134751.1.2.3.4" bus2="BT134761.1.2.3.4" linecode="75_4" length=0.058850000 units=km
New "Line.SBT_24812" phases=2 bus1="BT38811.1.4" bus2="BT38791.1.4" linecode="60_2" length=0.081020000 units=km
New "Line.SBT_24834" phases=2 bus1="BT291091.1.4" bus2="ET28_2832.1.4" linecode="62_2" length=0.144360000 units=km
New "Line.SBT_24836" phases=2 bus1="BT38801.1.4" bus2="BT38791.1.4" linecode="60_2" length=0.076920000 units=km
New "Line.SBT_24837" phases=3 bus1="BT47931.1.2.4" bus2="ET28_627.1.2.4" linecode="44_3" length=0.108720000 units=km
New "Line.SBT_24838" phases=2 bus1="BT47941.1.4" bus2="BT47931.1.4" linecode="60_2" length=0.080020000 units=km
New "Line.SBT_24839" phases=2 bus1="BT59451.1.4" bus2="BT59431.1.4" linecode="60_2" length=0.124740000 units=km
New "Line.SBT_24783" phases=2 bus1="BT109081.1.4" bus2="BT108541.1.4" linecode="60_2" length=0.086350000 units=km
New "Line.SBT_24784" phases=2 bus1="BT142371.2.4" bus2="BT142381.2.4" linecode="67_2" length=0.111290000 units=km
New "Line.SBT_24623" phases=3 bus1="BT21141.1.2.4" bus2="BT21131.1.2.4" linecode="76_3" length=0.079160000 units=km
New "Line.SBT_24468" phases=3 bus1="BT12051.1.2.4" bus2="BT12041.1.2.4" linecode="44_3" length=0.061740000 units=km
New "Line.SBT_24469" phases=3 bus1="BT21121.1.2.4" bus2="BT21111.1.2.4" linecode="76_3" length=0.091140000 units=km
New "Line.SBT_24476" phases=2 bus1="BT21161.2.4" bus2="BT21141.2.4" linecode="62_2" length=0.116500000 units=km
New "Line.SBT_24477" phases=2 bus1="BT17081.1.4" bus2="ET28_655.1.4" linecode="60_2" length=0.041590000 units=km
New "Line.SBT_24478" phases=2 bus1="BT325841.1.4" bus2="BT75921.1.4" linecode="60_2" length=0.071120000 units=km
New "Line.SBT_24350" phases=3 bus1="BT34031.1.2.4" bus2="ET28_693.1.2.4" linecode="91_3" length=0.069310000 units=km
New "Line.SBT_24351" phases=3 bus1="BT34051.1.2.4" bus2="ET28_693.1.2.4" linecode="91_3" length=0.059200000 units=km
New "Line.SBT_23603" phases=3 bus1="BT18311.1.2.4" bus2="BT18301.1.2.4" linecode="59_3" length=0.102960000 units=km
New "Line.SBT_22941" phases=2 bus1="BT574701.1.4" bus2="BT31621.1.4" linecode="62_2" length=0.055900000 units=km
New "Line.SBT_22228" phases=3 bus1="BT25101.1.2.4" bus2="BT25121.1.2.4" linecode="59_3" length=0.070230000 units=km
New "Line.SBT_21597" phases=2 bus1="BT649301.2.4" bus2="BT378171.2.4" linecode="60_2" length=0.064290000 units=km
New "Line.SBT_20436" phases=2 bus1="BT55451.2.4" bus2="BT55461.2.4" linecode="60_2" length=0.099160000 units=km
New "Line.SBT_20377" phases=3 bus1="BT55461.1.2.4" bus2="ET2_1992.1.2.4" linecode="44_3" length=0.240830000 units=km
New "Line.SBT_20089" phases=3 bus1="BT55501.1.2.4" bus2="BT55491.1.2.4" linecode="44_3" length=0.031780000 units=km
New "Line.SBT_19773" phases=4 bus1="BT476731.1.2.3.4" bus2="BT513231.1.2.3.4" linecode="16_4" length=0.026930000 units=km
New "Line.SBT_19667" phases=3 bus1="BT301791.1.2.4" bus2="ET28_3314.1.2.4" linecode="59_3" length=0.042110000 units=km
New "Line.SBT_35471" phases=2 bus1="BT132691.1.4" bus2="BT132701.1.4" linecode="60_2" length=0.082460000 units=km
New "Line.SBT_35472" phases=2 bus1="BT132701.1.4" bus2="ET28_695.1.4" linecode="60_2" length=0.076280000 units=km
New "Line.SBT_35474" phases=2 bus1="BT141451.2.4" bus2="ET28_695.2.4" linecode="60_2" length=0.103730000 units=km
New "Line.SBT_35469" phases=2 bus1="BT132671.1.4" bus2="BT132681.1.4" linecode="60_2" length=0.106400000 units=km
New "Line.SBT_35470" phases=2 bus1="BT132681.1.4" bus2="BT132691.1.4" linecode="60_2" length=0.077620000 units=km
New "Line.SBT_18434" phases=3 bus1="BT53531.1.2.4" bus2="ET28_4271.1.2.4" linecode="59_3" length=0.078290000 units=km
New "Line.SBT_18311" phases=3 bus1="BT17111.1.2.4" bus2="BT17101.1.2.4" linecode="44_3" length=0.078520000 units=km
New "Line.SBT_18265" phases=3 bus1="BT110001.1.2.4" bus2="ET28_2000.1.2.4" linecode="44_3" length=0.133700000 units=km
New "Line.SBT_18267" phases=3 bus1="BT349651.1.2.4" bus2="BT134751.1.2.4" linecode="76_3" length=0.045700000 units=km
New "Line.SBT_18182" phases=2 bus1="BT60941.1.4" bus2="BT28031.1.4" linecode="60_2" length=0.098620000 units=km
New "Line.SBT_18186" phases=3 bus1="BT364541.1.2.4" bus2="ET28_5431.1.2.4" linecode="59_3" length=0.047080000 units=km
New "Line.SBT_18189" phases=2 bus1="BT326281.1.4" bus2="BT326271.1.4" linecode="60_2" length=0.082870000 units=km
New "Line.SBT_18179" phases=2 bus1="BT54491.2.4" bus2="ET2_1955.2.4" linecode="60_2" length=0.076420000 units=km
New "Line.SBT_18077" phases=3 bus1="BT135781.1.2.4" bus2="BT135761.1.2.4" linecode="44_3" length=0.055800000 units=km
New "Line.SBT_18078" phases=2 bus1="BT56461.1.4" bus2="ET28_1829.1.4" linecode="60_2" length=0.037050000 units=km
New "Line.SBT_17707" phases=3 bus1="BT675971.1.2.4" bus2="BT371941.1.2.4" linecode="59_3" length=0.070210000 units=km
New "Line.SBT_17684" phases=3 bus1="BT736151.1.2.4" bus2="BT703921.1.2.4" linecode="44_3" length=0.067000000 units=km
New "Line.SBT_17697" phases=3 bus1="BT737841.1.2.4" bus2="BT60511.1.2.4" linecode="44_3" length=0.060610000 units=km
New "Line.SBT_17670" phases=3 bus1="BT371931.1.2.4" bus2="ET28_5205.1.2.4" linecode="59_3" length=0.063160000 units=km
New "Line.SBT_17671" phases=3 bus1="BT371941.1.2.4" bus2="ET28_5205.1.2.4" linecode="59_3" length=0.072800000 units=km
New "Line.SBT_17600" phases=2 bus1="BT510451.1.4" bus2="ET28_3696.1.4" linecode="70_2" length=0.043010000 units=km
New "Line.SBT_17601" phases=2 bus1="BT732581.1.4" bus2="BT732571.1.4" linecode="70_2" length=0.035410000 units=km
New "Line.SBT_17556" phases=4 bus1="BT685311.1.2.3.4" bus2="ET28_5324.1.2.3.4" linecode="97_4" length=0.031240000 units=km
New "Line.SBT_17520" phases=4 bus1="BT135631.1.2.3.4" bus2="BT689851.1.2.3.4" linecode="74_4" length=0.056170000 units=km
New "Line.SBT_17407" phases=2 bus1="BT110011.1.4" bus2="ET28_5431.1.4" linecode="62_2" length=0.131700000 units=km
New "Line.SBT_17358" phases=2 bus1="BT690481.1.4" bus2="ET28_5017.1.4" linecode="60_2" length=0.038710000 units=km
New "Line.SBT_17314" phases=2 bus1="BT392751.1.4" bus2="ET28_5380.1.4" linecode="62_2" length=0.040420000 units=km
New "Line.SBT_16644" phases=3 bus1="BT731101.1.2.4" bus2="ET28_699.1.2.4" linecode="44_3" length=0.042720000 units=km
New "Line.SBT_16524" phases=3 bus1="BT43761.1.2.4" bus2="ET28_4506.1.2.4" linecode="59_3" length=0.060590000 units=km
New "Line.SBT_16525" phases=3 bus1="BT668091.1.2.4" bus2="BT43021.1.2.4" linecode="59_3" length=0.048000000 units=km
New "Line.SBT_16442" phases=3 bus1="BT340732.1.2.4" bus2="BT117781.1.2.4" linecode="76_3" length=0.061000000 units=km
New "Line.SBT_16443" phases=2 bus1="BT340751.1.4" bus2="BT340732.1.4" linecode="60_2" length=0.131590000 units=km
New "Line.SBT_16201" phases=2 bus1="BT43801.1.4" bus2="ET28_4874.1.4" linecode="62_2" length=0.095780000 units=km
New "Line.SBT_16001" phases=3 bus1="BT719521.1.2.4" bus2="BT477411.1.2.4" linecode="44_3" length=0.082800000 units=km
New "Line.SBT_16002" phases=3 bus1="BT719601.1.2.4" bus2="ET28_4801.1.2.4" linecode="59_3" length=0.058520000 units=km
New "Line.SBT_16003" phases=3 bus1="BT16981.1.2.4" bus2="BT719601.1.2.4" linecode="59_3" length=0.089810000 units=km
New "Line.SBT_16004" phases=3 bus1="BT16991.1.2.4" bus2="ET28_4801.1.2.4" linecode="44_3" length=0.021540000 units=km
New "Line.SBT_15973" phases=3 bus1="BT703921.1.2.4" bus2="ET28_4965.1.2.4" linecode="44_3" length=0.045000000 units=km
New "Line.SBT_15632" phases=3 bus1="BT53511.1.2.4" bus2="BT47952.1.2.4" linecode="44_3" length=0.099860000 units=km
New "Line.SBT_15633" phases=2 bus1="BT47791.1.4" bus2="ET28_627.1.4" linecode="60_2" length=0.042440000 units=km
New "Line.SBT_15634" phases=3 bus1="BT664041.1.2.4" bus2="BT347071.1.2.4" linecode="44_3" length=0.066480000 units=km