New "Circuit.17_SE001_1" basekv=23.1 pu=1.0 bus1="1_SE001_17" r1=0.0 x1=0.0001
