
New "Load.MT_72775_M1" bus1="727751.1.2.3.4" phases=3 conn=Delta model=2 kv=23.100000000 kw = 0.4915295 pf=0.92 status=variable vmaxpu=1.5 vminpu=0.6 daily="MT2_DO"  
New "Load.MT_72775_M2" bus1="727751.1.2.3.4" phases=3 conn=Delta model=3 kv=23.100000000 kw = 0.4915295 pf=0.92 status=variable vmaxpu=1.5 vminpu=0.6 daily="MT2_DO" 
