New "LoadShape.default_pv_daily_mt" npts=24 interval=1 
~ mult = [0 0 0 0 0 0 0.1 0.2 0.3 0.5 0.8 0.9 1.0 1.0 0.99 0.9 0.7 0.4 0.1 0 0 0 0 0] 
New "LoadShape.default_daily" npts=24 interval=1 
~ mult = [0 0 0 0 0 0 0.1 0.2 0.3 0.5 0.8 0.9 1.0 1.0 0.99 0.9 0.7 0.4 0.1 0 0 0 0 0] 

New "generator.CGH.PH.RS.029551-5" phases=3 bus1=476671.1.2.3 basefreq=60 conn=Delta kv=23.1 pf=0.92 kw=280.0 daily=default_pv_daily_mt 

