New "Line.SMT_33761" phases=1 bus1="43021.1" bus2="43031.1" linecode="1_1" length=0.092090000 units=km
New "Line.SMT_33861" phases=3 bus1="476531.1.2.3" bus2="773951.1.2.3" linecode="10_3" length=0.003380000 units=km
New "Line.SMT_33860" phases=3 bus1="28RL1562.1.2.3" bus2="628591.1.2.3" linecode="10_3" length=0.021690000 units=km
New "Line.SMT_34510" phases=3 bus1="779041.1.2.3" bus2="141521.1.2.3" linecode="10_3" length=0.085390000 units=km
New "Line.SMT_34525" phases=1 bus1="340731.1" bus2="117781.1" linecode="29_1" length=0.061000000 units=km
New "Line.SMT_35828" phases=2 bus1="56401.3.1" bus2="56411.3.1" linecode="18_2" length=0.102690000 units=km
New "Line.SMT_35827" phases=2 bus1="36811.3.1" bus2="56401.3.1" linecode="18_2" length=0.090630000 units=km
New "Line.SMT_35826" phases=2 bus1="36801.3.1" bus2="36811.3.1" linecode="18_2" length=0.083930000 units=km
New "Line.SMT_36060" phases=1 bus1="53701.2" bus2="789661.2" linecode="1_1" length=0.002170000 units=km
New "Line.SMT_36059" phases=1 bus1="28CF889.2" bus2="53731.2" linecode="1_1" length=0.067350000 units=km
New "Line.SMT_36058" phases=3 bus1="53711.1.2.3" bus2="53721.1.2.3" linecode="10_3" length=0.046570000 units=km
New "Line.SMT_36057" phases=3 bus1="53701.1.2.3" bus2="53711.1.2.3" linecode="10_3" length=0.056320000 units=km
New "Line.SMT_36056" phases=3 bus1="53691.1.2.3" bus2="53701.1.2.3" linecode="10_3" length=0.083450000 units=km
New "Line.SMT_36055" phases=3 bus1="53681.1.2.3" bus2="53691.1.2.3" linecode="10_3" length=0.108190000 units=km
New "Line.SMT_36263" phases=1 bus1="109971.1" bus2="790881.1" linecode="1_1" length=0.004020000 units=km
New "Line.SMT_36262" phases=1 bus1="28FR1762.1" bus2="109981.1" linecode="1_1" length=0.131780000 units=km
New "Line.SMT_36640" phases=3 bus1="53571.1.2.3" bus2="793441.1.2.3" linecode="10_3" length=0.096870000 units=km
New "Line.SMT_36700" phases=3 bus1="28FR741.1.2.3" bus2="793641.1.2.3" linecode="10_3" length=0.001560000 units=km
New "Line.SMT_36699" phases=3 bus1="562451.1.2.3" bus2="793631.1.2.3" linecode="10_3" length=0.001670000 units=km
New "Line.SMT_36698" phases=3 bus1="793641.1.2.3" bus2="562461.1.2.3" linecode="10_3" length=0.040200000 units=km
New "Line.SMT_36960" phases=3 bus1="1_3PAS_1.1.2.3" bus2="794961.1.2.3" linecode="10_3" length=0.052360000 units=km
New "Line.SMT_36959" phases=3 bus1="794961.1.2.3" bus2="60831.1.2.3" linecode="10_3" length=0.013310000 units=km
New "Line.SMT_36990" phases=1 bus1="15281.2" bus2="795211.2" linecode="1_1" length=0.070100000 units=km
New "Line.SMT_37003" phases=2 bus1="12981.3.1" bus2="795261.3.1" linecode="18_2" length=0.002440000 units=km
New "Line.SMT_37002" phases=2 bus1="28FR1859.3.1" bus2="12991.3.1" linecode="18_2" length=0.090100000 units=km
New "Line.SMT_37469" phases=1 bus1="797851.1" bus2="797861.1" linecode="1_1" length=0.110270000 units=km
New "Line.SMT_37468" phases=1 bus1="797841.1" bus2="797851.1" linecode="1_1" length=0.101920000 units=km
New "Line.SMT_37467" phases=1 bus1="797831.1" bus2="797841.1" linecode="1_1" length=0.085890000 units=km
New "Line.SMT_37466" phases=1 bus1="55631.1" bus2="797831.1" linecode="1_1" length=0.081140000 units=km
New "Line.SMT_37681" phases=3 bus1="28CS1866.1.2.3" bus2="799201.1.2.3" linecode="10_3" length=0.001190000 units=km
New "Line.SMT_37680" phases=1 bus1="42801.3" bus2="799191.3" linecode="1_1" length=0.001790000 units=km
New "Line.SMT_37679" phases=3 bus1="60871.1.2.3" bus2="799181.1.2.3" linecode="10_3" length=0.002120000 units=km
New "Line.SMT_37678" phases=3 bus1="799201.1.2.3" bus2="325681.1.2.3" linecode="10_3" length=0.053730000 units=km
New "Line.SMT_37677" phases=1 bus1="28CF1865.3" bus2="42821.3" linecode="1_1" length=0.328080000 units=km
New "Line.SMT_37734" phases=1 bus1="799571.1" bus2="799581.1" linecode="1_1" length=0.073190000 units=km
New "Line.SMT_37733" phases=1 bus1="797841.1" bus2="799571.1" linecode="1_1" length=0.096060000 units=km
New "Line.SMT_38495" phases=3 bus1="804551.1.2.3" bus2="74622.1.2.3" linecode="10_3" length=0.058660000 units=km
New "Line.SMT_38523" phases=3 bus1="804701.1.2.3" bus2="804711.1.2.3" linecode="10_3" length=0.086890000 units=km
New "Line.SMT_38522" phases=3 bus1="804691.1.2.3" bus2="804701.1.2.3" linecode="10_3" length=0.091620000 units=km
New "Line.SMT_38521" phases=3 bus1="804681.1.2.3" bus2="804691.1.2.3" linecode="10_3" length=0.087100000 units=km
New "Line.SMT_38520" phases=3 bus1="804671.1.2.3" bus2="804681.1.2.3" linecode="10_3" length=0.090800000 units=km
New "Line.SMT_38497" phases=3 bus1="59501.1.2.3" bus2="804551.1.2.3" linecode="10_3" length=0.102700000 units=km
New "Line.SMT_38496" phases=3 bus1="74622.1.2.3" bus2="74631.1.2.3" linecode="10_3" length=0.086590000 units=km
New "Line.SMT_38525" phases=3 bus1="804721.1.2.3" bus2="804731.1.2.3" linecode="10_3" length=0.065940000 units=km
New "Line.SMT_38524" phases=3 bus1="804711.1.2.3" bus2="804721.1.2.3" linecode="10_3" length=0.081940000 units=km
New "Line.SMT_38629" phases=2 bus1="12151.3.1" bus2="805441.3.1" linecode="18_2" length=0.039180000 units=km
New "Line.SMT_38628" phases=2 bus1="805441.3.1" bus2="31511.3.1" linecode="18_2" length=0.042750000 units=km
New "Line.SMT_38645" phases=3 bus1="3021.1.2.3" bus2="805571.1.2.3" linecode="10_3" length=0.062240000 units=km
New "Line.SMT_38644" phases=3 bus1="805551.1.2.3" bus2="805561.1.2.3" linecode="10_3" length=0.061140000 units=km
New "Line.SMT_38643" phases=3 bus1="805541.1.2.3" bus2="805551.1.2.3" linecode="10_3" length=0.072570000 units=km
New "Line.SMT_38642" phases=3 bus1="805531.1.2.3" bus2="805541.1.2.3" linecode="10_3" length=0.079990000 units=km
New "Line.SMT_38641" phases=3 bus1="805521.1.2.3" bus2="805531.1.2.3" linecode="10_3" length=0.079870000 units=km
New "Line.SMT_38640" phases=3 bus1="805501.1.2.3" bus2="805521.1.2.3" linecode="10_3" length=0.092260000 units=km
New "Line.SMT_38639" phases=3 bus1="805473.1.2.3" bus2="805511.1.2.3" linecode="10_3" length=0.085230000 units=km
New "Line.SMT_38638" phases=3 bus1="805481.1.2.3" bus2="805501.1.2.3" linecode="10_3" length=0.070950000 units=km
New "Line.SMT_38637" phases=3 bus1="805511.1.2.3" bus2="805481.1.2.3" linecode="10_3" length=0.083790000 units=km
New "Line.SMT_38636" phases=3 bus1="805571.1.2.3" bus2="805473.1.2.3" linecode="10_3" length=0.051110000 units=km
New "Line.SMT_38635" phases=1 bus1="3011.1" bus2="2991.1" linecode="1_1" length=0.118060000 units=km
New "Line.SMT_38765" phases=1 bus1="806361.1" bus2="806371.1" linecode="1_1" length=0.068410000 units=km
New "Line.SMT_38764" phases=1 bus1="806351.1" bus2="806361.1" linecode="1_1" length=0.078060000 units=km
New "Line.SMT_38763" phases=1 bus1="797831.1" bus2="806351.1" linecode="1_1" length=0.056130000 units=km
New "Line.SMT_38845" phases=2 bus1="110131.3.1" bus2="806811.3.1" linecode="18_2" length=0.106710000 units=km
New "Line.SMT_38844" phases=2 bus1="806811.3.1" bus2="110151.3.1" linecode="18_2" length=0.083090000 units=km
New "Line.SMT_39269" phases=3 bus1="810611.1.2.3" bus2="628521.1.2.3" linecode="10_3" length=0.075930000 units=km
New "Line.SMT_39316" phases=1 bus1="43751.3" bus2="810971.3" linecode="1_1" length=0.043790000 units=km
New "Line.SMT_39315" phases=1 bus1="810971.3" bus2="668101.3" linecode="1_1" length=0.043040000 units=km
New "Line.SMT_39332" phases=1 bus1="132701.1" bus2="141441.1" linecode="1_1" length=0.076280000 units=km
New "Line.SMT_39331" phases=1 bus1="27881.3" bus2="27891.3" linecode="1_1" length=0.223730000 units=km
New "Line.SMT_39330" phases=1 bus1="642411.3" bus2="27881.3" linecode="1_1" length=0.082100000 units=km
New "Line.SMT_39434" phases=3 bus1="788171.1.2.3" bus2="34011.1.2.3" linecode="10_3" length=0.043490000 units=km
New "Line.SMT_39437" phases=3 bus1="47191.1.2.3" bus2="812041.1.2.3" linecode="10_3" length=0.092890000 units=km
New "Line.SMT_39436" phases=3 bus1="47201.1.2.3" bus2="788171.1.2.3" linecode="10_3" length=0.049650000 units=km
New "Line.SMT_39435" phases=3 bus1="47191.1.2.3" bus2="47201.1.2.3" linecode="10_3" length=0.090640000 units=km
New "Line.SMT_39485" phases=3 bus1="812461.1.2.3" bus2="353882.1.2.3" linecode="10_3" length=0.083870000 units=km
New "Line.SMT_39484" phases=3 bus1="812461.1.2.3" bus2="619231.1.2.3" linecode="10_3" length=0.108800000 units=km
New "Line.SMT_40897" phases=1 bus1="824841.3" bus2="824851.3" linecode="1_1" length=0.117530000 units=km
New "Line.SMT_40896" phases=1 bus1="824831.3" bus2="824841.3" linecode="1_1" length=0.072010000 units=km
New "Line.SMT_40895" phases=1 bus1="824821.3" bus2="824831.3" linecode="1_1" length=0.086830000 units=km
New "Line.SMT_40894" phases=1 bus1="824811.3" bus2="824821.3" linecode="1_1" length=0.085510000 units=km
New "Line.SMT_40893" phases=1 bus1="824801.3" bus2="824811.3" linecode="1_1" length=0.166180000 units=km
New "Line.SMT_40892" phases=1 bus1="42821.3" bus2="824801.3" linecode="1_1" length=0.132460000 units=km
New "Line.SMT_960" phases=1 bus1="142241.3" bus2="372181.3" linecode="29_1" length=0.072500000 units=km
New "Line.SMT_1382" phases=3 bus1="564131.1.2.3" bus2="564141.1.2.3" linecode="10_3" length=0.117390000 units=km
New "Line.SMT_1380" phases=3 bus1="574871.1.2.3" bus2="72601.1.2.3" linecode="10_3" length=0.116810000 units=km
New "Line.SMT_1522" phases=1 bus1="559831.1" bus2="559841.1" linecode="1_1" length=0.101640000 units=km
New "Line.SMT_1676" phases=1 bus1="275741.1" bus2="559831.1" linecode="1_1" length=0.221120000 units=km
New "Line.SMT_2804" phases=3 bus1="60421.1.2.3" bus2="562451.1.2.3" linecode="10_3" length=0.123330000 units=km
New "Line.SMT_3434" phases=1 bus1="27851.3" bus2="27861.3" linecode="1_1" length=0.050770000 units=km
New "Line.SMT_3455" phases=1 bus1="27831.1" bus2="27901.1" linecode="1_1" length=0.232280000 units=km
New "Line.SMT_3454" phases=1 bus1="27861.3" bus2="642411.3" linecode="1_1" length=0.062510000 units=km
New "Line.SMT_3453" phases=1 bus1="27841.3" bus2="27851.3" linecode="1_1" length=0.084400000 units=km
New "Line.SMT_3452" phases=1 bus1="27831.3" bus2="27841.3" linecode="1_1" length=0.089870000 units=km
New "Line.SMT_3514" phases=1 bus1="46951.1" bus2="46961.1" linecode="1_1" length=0.056160000 units=km
New "Line.SMT_3513" phases=1 bus1="27901.1" bus2="46941.1" linecode="1_1" length=0.221460000 units=km
New "Line.SMT_3532" phases=1 bus1="46961.1" bus2="46971.1" linecode="1_1" length=0.077390000 units=km
New "Line.SMT_3531" phases=1 bus1="46941.1" bus2="46951.1" linecode="1_1" length=0.064930000 units=km
New "Line.SMT_3711" phases=1 bus1="109091.3" bus2="632571.3" linecode="1_1" length=0.049090000 units=km
New "Line.SMT_3705" phases=3 bus1="740941.1.2.3" bus2="72581.1.2.3" linecode="10_3" length=0.034010000 units=km
New "Line.SMT_5290" phases=1 bus1="174301.1" bus2="199761.1" linecode="1_1" length=0.102000000 units=km
New "Line.SMT_5548" phases=1 bus1="110181.1" bus2="357391.1" linecode="1_1" length=0.207470000 units=km
New "Line.SMT_5808" phases=1 bus1="42851.3" bus2="42861.3" linecode="1_1" length=0.396650000 units=km
New "Line.SMT_5807" phases=1 bus1="42831.3" bus2="42851.3" linecode="1_1" length=0.033420000 units=km
New "Line.SMT_5934" phases=1 bus1="357391.1" bus2="357401.1" linecode="1_1" length=0.369540000 units=km
New "Line.SMT_6559" phases=1 bus1="357401.1" bus2="357411.1" linecode="1_1" length=0.157380000 units=km
New "Line.SMT_8350" phases=1 bus1="199741.1" bus2="199751.1" linecode="1_1" length=0.103000000 units=km
New "Line.SMT_8349" phases=1 bus1="199731.1" bus2="199741.1" linecode="1_1" length=0.100020000 units=km
New "Line.SMT_8417" phases=1 bus1="340721.1" bus2="199701.1" linecode="1_1" length=0.143670000 units=km
New "Line.SMT_8416" phases=1 bus1="340711.1" bus2="340721.1" linecode="1_1" length=0.056860000 units=km
New "Line.SMT_8848" phases=3 bus1="11981.1.2.3" bus2="240061.1.2.3" linecode="10_3" length=0.002650000 units=km
New "Line.SMT_9456" phases=3 bus1="17141.1.2.3" bus2="83431.1.2.3" linecode="10_3" length=0.002950000 units=km
New "Line.SMT_11526" phases=3 bus1="349681.1.2.3" bus2="645321.1.2.3" linecode="10_3" length=0.010200000 units=km
New "Line.SMT_14985" phases=1 bus1="109261.3" bus2="109291.3" linecode="1_1" length=0.058520000 units=km
New "Line.SMT_14983" phases=2 bus1="142241.3.1" bus2="109091.3.1" linecode="18_2" length=0.135670000 units=km
New "Line.SMT_14978" phases=3 bus1="14511.1.2.3" bus2="14531.1.2.3" linecode="10_3" length=0.104170000 units=km
New "Line.SMT_15011" phases=1 bus1="54511.2" bus2="54521.2" linecode="1_1" length=0.103590000 units=km
New "Line.SMT_15002" phases=1 bus1="11031.3" bus2="11101.3" linecode="1_1" length=0.366760000 units=km
New "Line.SMT_15001" phases=1 bus1="275711.1" bus2="275721.1" linecode="1_1" length=0.120040000 units=km
New "Line.SMT_14999" phases=3 bus1="353882.1.2.3" bus2="135731.1.2.3" linecode="10_3" length=0.072110000 units=km
New "Line.SMT_15024" phases=3 bus1="141491.1.2.3" bus2="141501.1.2.3" linecode="10_3" length=0.107560000 units=km
New "Line.SMT_15023" phases=2 bus1="110121.3.1" bus2="110131.3.1" linecode="18_2" length=0.109660000 units=km
New "Line.SMT_15018" phases=3 bus1="134691.1.2.3" bus2="134701.1.2.3" linecode="10_3" length=0.100730000 units=km
New "Line.SMT_15083" phases=1 bus1="13031.3" bus2="13041.3" linecode="1_1" length=0.085290000 units=km
New "Line.SMT_15082" phases=1 bus1="27291.1" bus2="141591.1" linecode="1_1" length=0.001690000 units=km
New "Line.SMT_15108" phases=3 bus1="141521.1.2.3" bus2="141541.1.2.3" linecode="10_3" length=0.093340000 units=km
New "Line.SMT_15107" phases=1 bus1="109941.3" bus2="109951.3" linecode="1_1" length=0.097130000 units=km
New "Line.SMT_15104" phases=2 bus1="109091.3.1" bus2="109111.3.1" linecode="18_2" length=0.049770000 units=km
New "Line.SMT_15096" phases=1 bus1="148121.3" bus2="109941.3" linecode="1_1" length=0.068120000 units=km
New "Line.SMT_15095" phases=3 bus1="141511.1.2.3" bus2="779041.1.2.3" linecode="10_3" length=0.086350000 units=km
New "Line.SMT_15094" phases=1 bus1="54531.2" bus2="54541.2" linecode="1_1" length=0.075430000 units=km
New "Line.SMT_15124" phases=2 bus1="109131.3.1" bus2="109141.3.1" linecode="18_2" length=0.097800000 units=km
New "Line.SMT_15122" phases=2 bus1="110161.3.1" bus2="110171.3.1" linecode="18_2" length=0.063890000 units=km
New "Line.SMT_15140" phases=2 bus1="110171.3.1" bus2="110181.3.1" linecode="18_2" length=0.120810000 units=km
New "Line.SMT_15137" phases=2 bus1="55631.3.1" bus2="55641.3.1" linecode="18_2" length=0.105000000 units=km
New "Line.SMT_15136" phases=1 bus1="54481.2" bus2="376511.2" linecode="1_1" length=0.124520000 units=km
New "Line.SMT_15135" phases=3 bus1="15121.1.2.3" bus2="15131.1.2.3" linecode="10_3" length=0.104620000 units=km
New "Line.SMT_15167" phases=3 bus1="60401.1.2.3" bus2="15281.1.2.3" linecode="10_3" length=0.084080000 units=km
New "Line.SMT_15204" phases=2 bus1="142341.3.1" bus2="142351.3.1" linecode="18_2" length=0.072090000 units=km
New "Line.SMT_15202" phases=3 bus1="60441.1.2.3" bus2="60451.1.2.3" linecode="10_3" length=0.102040000 units=km
New "Line.SMT_15236" phases=3 bus1="21221.1.2.3" bus2="21231.1.2.3" linecode="10_3" length=0.089040000 units=km
New "Line.SMT_15218" phases=1 bus1="54561.2" bus2="54571.2" linecode="1_1" length=0.111570000 units=km
New "Line.SMT_15217" phases=2 bus1="55641.3.1" bus2="36791.3.1" linecode="18_2" length=0.097710000 units=km
New "Line.SMT_15304" phases=2 bus1="109231.3.1" bus2="109261.3.1" linecode="18_2" length=0.078770000 units=km
New "Line.SMT_15322" phases=3 bus1="3081.1.2.3" bus2="3091.1.2.3" linecode="10_3" length=0.111310000 units=km
New "Line.SMT_15319" phases=3 bus1="141481.1.2.3" bus2="141491.1.2.3" linecode="10_3" length=0.093260000 units=km
New "Line.SMT_15318" phases=2 bus1="110111.3.1" bus2="110121.3.1" linecode="18_2" length=0.101530000 units=km
New "Line.SMT_15332" phases=3 bus1="60451.1.2.3" bus2="60461.1.2.3" linecode="10_3" length=0.106000000 units=km
New "Line.SMT_15330" phases=3 bus1="21091.1.2.3" bus2="21101.1.2.3" linecode="10_3" length=0.086680000 units=km
New "Line.SMT_15328" phases=3 bus1="3091.1.2.3" bus2="72501.1.2.3" linecode="10_3" length=0.064660000 units=km
New "Line.SMT_15327" phases=1 bus1="312901.1" bus2="275711.1" linecode="1_1" length=0.119040000 units=km
New "Line.SMT_15365" phases=2 bus1="11051.3.1" bus2="11041.3.1" linecode="18_2" length=0.088410000 units=km
New "Line.SMT_15359" phases=2 bus1="21261.3.1" bus2="21271.3.1" linecode="18_2" length=0.096520000 units=km
New "Line.SMT_15357" phases=3 bus1="72551.1.2.3" bus2="72561.1.2.3" linecode="10_3" length=0.125200000 units=km
New "Line.SMT_15356" phases=3 bus1="59461.1.2.3" bus2="59471.1.2.3" linecode="10_3" length=0.085590000 units=km
New "Line.SMT_15386" phases=3 bus1="15331.1.2.3" bus2="15341.1.2.3" linecode="10_3" length=0.102420000 units=km
New "Line.SMT_15385" phases=1 bus1="54681.2" bus2="54691.2" linecode="1_1" length=0.125880000 units=km
New "Line.SMT_15383" phases=3 bus1="60481.1.2.3" bus2="60491.1.2.3" linecode="10_3" length=0.132310000 units=km
New "Line.SMT_15378" phases=3 bus1="72511.1.2.3" bus2="72521.1.2.3" linecode="10_3" length=0.062970000 units=km
New "Line.SMT_15370" phases=3 bus1="15311.1.2.3" bus2="15321.1.2.3" linecode="10_3" length=0.098410000 units=km
New "Line.SMT_15366" phases=1 bus1="56451.1" bus2="312891.1" linecode="1_1" length=0.103000000 units=km
New "Line.SMT_15397" phases=3 bus1="60491.1.2.3" bus2="60501.1.2.3" linecode="10_3" length=0.102120000 units=km
New "Line.SMT_15396" phases=3 bus1="15321.1.2.3" bus2="15331.1.2.3" linecode="10_3" length=0.111830000 units=km
New "Line.SMT_15394" phases=2 bus1="150561.3.1" bus2="12951.3.1" linecode="18_2" length=0.070710000 units=km
New "Line.SMT_15393" phases=2 bus1="38821.3.1" bus2="38831.3.1" linecode="18_2" length=0.182160000 units=km
New "Line.SMT_15392" phases=2 bus1="11041.3.1" bus2="11031.3.1" linecode="18_2" length=0.090600000 units=km
New "Line.SMT_15428" phases=3 bus1="72541.1.2.3" bus2="72551.1.2.3" linecode="10_3" length=0.120040000 units=km
New "Line.SMT_15425" phases=3 bus1="78351.1.2.3" bus2="78361.1.2.3" linecode="10_3" length=0.089190000 units=km
New "Line.SMT_15424" phases=1 bus1="28CF329.1" bus2="664081.1" linecode="1_1" length=0.466310000 units=km
New "Line.SMT_15418" phases=2 bus1="36791.3.1" bus2="36801.3.1" linecode="18_2" length=0.109670000 units=km
New "Line.SMT_15417" phases=1 bus1="12401.1" bus2="27281.1" linecode="1_1" length=0.094240000 units=km
New "Line.SMT_15410" phases=1 bus1="54691.2" bus2="54701.2" linecode="1_1" length=0.062630000 units=km
New "Line.SMT_15445" phases=3 bus1="60461.1.2.3" bus2="60471.1.2.3" linecode="10_3" length=0.114000000 units=km
New "Line.SMT_15444" phases=3 bus1="15291.1.2.3" bus2="15301.1.2.3" linecode="10_3" length=0.130590000 units=km
New "Line.SMT_15442" phases=3 bus1="21241.1.2.3" bus2="53551.1.2.3" linecode="10_3" length=0.098480000 units=km
New "Line.SMT_15437" phases=3 bus1="15111.1.2.3" bus2="15121.1.2.3" linecode="10_3" length=0.100960000 units=km
New "Line.SMT_15435" phases=3 bus1="134731.1.2.3" bus2="346761.1.2.3" linecode="10_3" length=0.165190000 units=km
New "Line.SMT_15431" phases=2 bus1="109171.3.1" bus2="109181.3.1" linecode="18_2" length=0.089690000 units=km
New "Line.SMT_15464" phases=3 bus1="72521.1.2.3" bus2="72531.1.2.3" linecode="10_3" length=0.105760000 units=km
New "Line.SMT_15456" phases=2 bus1="55611.3.1" bus2="55621.3.1" linecode="18_2" length=0.102020000 units=km
New "Line.SMT_15454" phases=3 bus1="72501.1.2.3" bus2="72511.1.2.3" linecode="10_3" length=0.056800000 units=km
New "Line.SMT_15452" phases=1 bus1="14511.3" bus2="14521.3" linecode="1_1" length=0.240830000 units=km
New "Line.SMT_15484" phases=3 bus1="47121.1.2.3" bus2="47141.1.2.3" linecode="10_3" length=0.087660000 units=km
New "Line.SMT_15481" phases=1 bus1="275721.1" bus2="275731.1" linecode="1_1" length=0.093050000 units=km
New "Line.SMT_15476" phases=3 bus1="47111.1.2.3" bus2="47121.1.2.3" linecode="10_3" length=0.090820000 units=km
New "Line.SMT_15469" phases=1 bus1="134591.1" bus2="134641.1" linecode="1_1" length=0.210950000 units=km
New "Line.SMT_15467" phases=1 bus1="275731.1" bus2="275741.1" linecode="1_1" length=0.121480000 units=km
New "Line.SMT_15466" phases=1 bus1="109311.3" bus2="148121.3" linecode="1_1" length=0.163080000 units=km
New "Line.SMT_15500" phases=3 bus1="12101.1.2.3" bus2="12111.1.2.3" linecode="13_3" length=0.104240000 units=km
New "Line.SMT_15495" phases=3 bus1="59471.1.2.3" bus2="59481.1.2.3" linecode="10_3" length=0.090210000 units=km
New "Line.SMT_15491" phases=3 bus1="141501.1.2.3" bus2="141511.1.2.3" linecode="10_3" length=0.112360000 units=km
New "Line.SMT_15486" phases=3 bus1="53561.1.2.3" bus2="53571.1.2.3" linecode="10_3" length=0.217450000 units=km
New "Line.SMT_15511" phases=2 bus1="21281.3.1" bus2="21301.3.1" linecode="18_2" length=0.117140000 units=km
New "Line.SMT_15504" phases=1 bus1="11111.3" bus2="11121.3" linecode="1_1" length=0.084100000 units=km
New "Line.SMT_15540" phases=1 bus1="664071.1" bus2="27951.1" linecode="1_1" length=0.074000000 units=km
New "Line.SMT_15539" phases=1 bus1="13041.3" bus2="13051.3" linecode="1_1" length=0.106230000 units=km
New "Line.SMT_15534" phases=3 bus1="21211.1.2.3" bus2="21221.1.2.3" linecode="10_3" length=0.086840000 units=km
New "Line.SMT_15525" phases=1 bus1="134641.1" bus2="134651.1" linecode="1_1" length=0.100900000 units=km
New "Line.SMT_15558" phases=3 bus1="21171.1.2.3" bus2="21201.1.2.3" linecode="10_3" length=0.184850000 units=km
New "Line.SMT_15547" phases=3 bus1="74631.1.2.3" bus2="11.1.2.3" linecode="10_3" length=0.090050000 units=km
New "Line.SMT_15574" phases=2 bus1="110191.3.1" bus2="110201.3.1" linecode="18_2" length=0.087130000 units=km
New "Line.SMT_15573" phases=2 bus1="109111.3.1" bus2="109121.3.1" linecode="18_2" length=0.088530000 units=km
New "Line.SMT_15571" phases=3 bus1="59481.1.2.3" bus2="59501.1.2.3" linecode="10_3" length=0.095660000 units=km
New "Line.SMT_15601" phases=2 bus1="726431.3.1" bus2="38821.3.1" linecode="18_2" length=0.090760000 units=km
New "Line.SMT_15600" phases=3 bus1="701861.1.2.3" bus2="142211.1.2.3" linecode="10_3" length=0.121430000 units=km
New "Line.SMT_15599" phases=3 bus1="15131.1.2.3" bus2="15141.1.2.3" linecode="10_3" length=0.094700000 units=km
New "Line.SMT_15586" phases=2 bus1="142331.3.1" bus2="142341.3.1" linecode="18_2" length=0.102040000 units=km
New "Line.SMT_15627" phases=1 bus1="54541.2" bus2="54551.2" linecode="1_1" length=0.070840000 units=km
New "Line.SMT_15611" phases=3 bus1="12011.1.2.3" bus2="12021.1.2.3" linecode="13_3" length=0.090610000 units=km
New "Line.SMT_15610" phases=3 bus1="47161.1.2.3" bus2="47171.1.2.3" linecode="10_3" length=0.092590000 units=km
New "Line.SMT_15640" phases=3 bus1="28FR323.1.2.3" bus2="60421.1.2.3" linecode="10_3" length=0.099200000 units=km
New "Line.SMT_15629" phases=3 bus1="15141.1.2.3" bus2="15181.1.2.3" linecode="10_3" length=0.041050000 units=km
New "Line.SMT_15628" phases=1 bus1="54551.2" bus2="54561.2" linecode="1_1" length=0.095210000 units=km
New "Line.SMT_15669" phases=3 bus1="34021.1.2.3" bus2="134681.1.2.3" linecode="10_3" length=0.113740000 units=km
New "Line.SMT_15668" phases=2 bus1="34021.3.1" bus2="75921.3.1" linecode="18_2" length=0.078000000 units=km
New "Line.SMT_15659" phases=3 bus1="47191.1.2.3" bus2="34021.1.2.3" linecode="10_3" length=0.274050000 units=km
New "Line.SMT_15658" phases=3 bus1="21231.1.2.3" bus2="21241.1.2.3" linecode="10_3" length=0.100440000 units=km
New "Line.SMT_15708" phases=2 bus1="75921.3.1" bus2="75931.3.1" linecode="18_2" length=0.070680000 units=km
New "Line.SMT_15695" phases=3 bus1="12081.1.2.3" bus2="12091.1.2.3" linecode="13_3" length=0.102180000 units=km
New "Line.SMT_15694" phases=2 bus1="21251.3.1" bus2="21261.3.1" linecode="18_2" length=0.076540000 units=km
New "Line.SMT_15734" phases=3 bus1="619251.1.2.3" bus2="78341.1.2.3" linecode="10_3" length=0.209380000 units=km
New "Line.SMT_15733" phases=1 bus1="142351.1" bus2="142361.1" linecode="1_1" length=0.093860000 units=km
New "Line.SMT_15725" phases=3 bus1="17161.1.2.3" bus2="17171.1.2.3" linecode="10_3" length=0.126820000 units=km
New "Line.SMT_15720" phases=1 bus1="12381.1" bus2="12401.1" linecode="1_1" length=0.050960000 units=km
New "Line.SMT_15719" phases=2 bus1="12971.3.1" bus2="12981.3.1" linecode="18_2" length=0.098010000 units=km
New "Line.SMT_15718" phases=1 bus1="12371.1" bus2="12381.1" linecode="1_1" length=0.080650000 units=km
New "Line.SMT_15717" phases=2 bus1="12961.3.1" bus2="12971.3.1" linecode="18_2" length=0.093380000 units=km
New "Line.SMT_15716" phases=2 bus1="12361.3.1" bus2="12371.3.1" linecode="18_2" length=0.114490000 units=km
New "Line.SMT_15714" phases=3 bus1="17151.1.2.3" bus2="17161.1.2.3" linecode="10_3" length=0.095780000 units=km
New "Line.SMT_15755" phases=1 bus1="56451.1" bus2="56471.1" linecode="1_1" length=0.220130000 units=km
New "Line.SMT_15745" phases=3 bus1="15341.1.2.3" bus2="15351.1.2.3" linecode="10_3" length=0.107790000 units=km
New "Line.SMT_15744" phases=1 bus1="142361.1" bus2="142371.1" linecode="1_1" length=0.098350000 units=km
New "Line.SMT_15743" phases=2 bus1="109141.3.1" bus2="109151.3.1" linecode="18_2" length=0.082150000 units=km
New "Line.SMT_15742" phases=1 bus1="54571.2" bus2="54581.2" linecode="1_1" length=0.087600000 units=km
New "Line.SMT_15768" phases=1 bus1="27281.1" bus2="27291.1" linecode="1_1" length=0.121120000 units=km
New "Line.SMT_15765" phases=1 bus1="664081.1" bus2="664071.1" linecode="1_1" length=0.055360000 units=km
New "Line.SMT_15791" phases=1 bus1="312891.1" bus2="312901.1" linecode="1_1" length=0.117020000 units=km
New "Line.SMT_15817" phases=2 bus1="110061.3.1" bus2="110071.3.1" linecode="18_2" length=0.083670000 units=km
New "Line.SMT_15816" phases=3 bus1="43801.1.2.3" bus2="43811.1.2.3" linecode="10_3" length=0.095780000 units=km
New "Line.SMT_15807" phases=1 bus1="55441.2" bus2="55461.2" linecode="1_1" length=0.199530000 units=km
New "Line.SMT_15806" phases=3 bus1="43791.1.2.3" bus2="43801.1.2.3" linecode="10_3" length=0.082620000 units=km
New "Line.SMT_15805" phases=3 bus1="17061.1.2.3" bus2="17071.1.2.3" linecode="10_3" length=0.069840000 units=km
New "Line.SMT_15804" phases=3 bus1="11911.1.2.3" bus2="11921.1.2.3" linecode="10_3" length=0.111040000 units=km
New "Line.SMT_15803" phases=3 bus1="2981.1.2.3" bus2="3001.1.2.3" linecode="10_3" length=0.087210000 units=km
New "Line.SMT_15802" phases=3 bus1="2971.1.2.3" bus2="2981.1.2.3" linecode="10_3" length=0.089810000 units=km
New "Line.SMT_15832" phases=3 bus1="689821.1.2.3" bus2="134831.1.2.3" linecode="10_3" length=0.121310000 units=km
New "Line.SMT_15831" phases=3 bus1="12131.1.2.3" bus2="12141.1.2.3" linecode="13_3" length=0.129390000 units=km
New "Line.SMT_15825" phases=1 bus1="110001.1" bus2="110031.1" linecode="1_1" length=0.133700000 units=km
New "Line.SMT_15818" phases=1 bus1="54711.2" bus2="55431.2" linecode="1_1" length=0.104060000 units=km
New "Line.SMT_15852" phases=2 bus1="12991.3.1" bus2="13021.3.1" linecode="18_2" length=0.065760000 units=km
New "Line.SMT_15843" phases=1 bus1="134651.1" bus2="134661.1" linecode="1_1" length=0.169190000 units=km
New "Line.SMT_15837" phases=1 bus1="113911.1" bus2="31551.1" linecode="27_1" length=0.146580000 units=km
New "Line.SMT_15871" phases=2 bus1="55601.3.1" bus2="55611.3.1" linecode="18_2" length=0.086050000 units=km
New "Line.SMT_15857" phases=3 bus1="141461.1.2.3" bus2="141471.1.2.3" linecode="10_3" length=0.074430000 units=km
New "Line.SMT_15856" phases=2 bus1="109211.3.1" bus2="109231.3.1" linecode="18_2" length=0.168800000 units=km
New "Line.SMT_15892" phases=3 bus1="78361.1.2.3" bus2="132671.1.2.3" linecode="10_3" length=0.065550000 units=km
New "Line.SMT_15876" phases=3 bus1="141471.1.2.3" bus2="141481.1.2.3" linecode="10_3" length=0.095430000 units=km
New "Line.SMT_15875" phases=3 bus1="135731.1.2.3" bus2="135741.1.2.3" linecode="10_3" length=0.102000000 units=km
New "Line.SMT_15874" phases=2 bus1="142301.3.1" bus2="142311.3.1" linecode="18_2" length=0.081320000 units=km
New "Line.SMT_15912" phases=1 bus1="13171.1" bus2="13181.1" linecode="1_1" length=0.090010000 units=km
New "Line.SMT_15911" phases=1 bus1="13151.1" bus2="13161.1" linecode="1_1" length=0.087010000 units=km
New "Line.SMT_15910" phases=3 bus1="60851.1.2.3" bus2="325671.1.2.3" linecode="10_3" length=0.106250000 units=km
New "Line.SMT_15900" phases=3 bus1="3061.1.2.3" bus2="3071.1.2.3" linecode="10_3" length=0.106000000 units=km
New "Line.SMT_15925" phases=3 bus1="11931.1.2.3" bus2="11941.1.2.3" linecode="10_3" length=0.099080000 units=km
New "Line.SMT_15924" phases=1 bus1="53761.2" bus2="50671.2" linecode="1_1" length=0.170040000 units=km
New "Line.SMT_15923" phases=2 bus1="55591.3.1" bus2="55601.3.1" linecode="18_2" length=0.119850000 units=km
New "Line.SMT_15957" phases=1 bus1="13051.3" bus2="13061.3" linecode="1_1" length=0.065010000 units=km
New "Line.SMT_15954" phases=1 bus1="28CF318.1" bus2="59421.1" linecode="1_1" length=0.057680000 units=km
New "Line.SMT_15952" phases=2 bus1="11.3.1" bus2="861.3.1" linecode="18_2" length=0.073170000 units=km
New "Line.SMT_15947" phases=1 bus1="38641.1" bus2="38651.1" linecode="1_1" length=0.093610000 units=km
New "Line.SMT_15946" phases=1 bus1="13201.1" bus2="38641.1" linecode="1_1" length=0.124330000 units=km
New "Line.SMT_15943" phases=3 bus1="53631.1.2.3" bus2="53641.1.2.3" linecode="10_3" length=0.078490000 units=km
New "Line.SMT_15938" phases=2 bus1="21321.3.1" bus2="47781.3.1" linecode="18_2" length=0.081910000 units=km
New "Line.SMT_15984" phases=2 bus1="13021.3.1" bus2="13031.3.1" linecode="18_2" length=0.085710000 units=km
New "Line.SMT_15977" phases=1 bus1="50681.2" bus2="54481.2" linecode="1_1" length=0.122890000 units=km